** written by FreeCAD inp file writer for CalculiX,Abaqus meshes
** highest dimension mesh elements only.

** Nodes
*Node, NSET=Nall
1, 0, 0, 1000
2, 0, 0, 0
3, 0, 1000, 1000
4, 0, 1000, 0
5, 8000, 0, 1000
6, 8000, 0, 0
7, 8000, 1000, 1000
8, 8000, 1000, 0
9, 0, 0, 500
10, 0, 0, 250
11, 0, 0, 750
12, 0, 500, 1000
13, 0, 250, 1000
14, 0, 750, 1000
15, 0, 1000, 500
16, 0, 1000, 250
17, 0, 1000, 750
18, 0, 500, 0
19, 0, 250, 0
20, 0, 750, 0
** ... 500 like lines cut


** Volume elements
*Element, TYPE=C3D10, ELSET=Evolumes
257, 228, 167, 160, 289, 404, 203, 403, 406, 405, 407
258, 228, 342, 167, 350, 409, 408, 404, 410, 386, 411
259, 229, 290, 284, 168, 413, 303, 412, 415, 414, 416
260, 348, 351, 229, 168, 364, 417, 418, 420, 419, 415
261, 228, 160, 221, 289, 403, 421, 264, 406, 407, 422
262, 228, 167, 342, 160, 404, 408, 409, 403, 203, 423
263, 348, 229, 284, 168, 418, 412, 424, 420, 415, 416
264, 281, 160, 220, 282, 427, 425, 426, 324, 428, 429
265, 344, 282, 220, 343, 431, 429, 430, 382, 432, 433
266, 344, 282, 223, 220, 431, 434, 435, 430, 429, 260
267, 221, 160, 342, 220, 421, 423, 436, 263, 425, 437
268, 220, 221, 160, 281, 263, 421, 425, 426, 438, 427
269, 344, 223, 282, 287, 435, 434, 431, 440, 439, 321
270, 342, 160, 343, 220, 423, 441, 385, 437, 425, 433
271, 220, 160, 343, 282, 425, 441, 433, 429, 428, 432
272, 163, 348, 284, 165, 443, 424, 442, 184, 444, 445
273, 348, 224, 288, 226, 448, 446, 447, 449, 245, 450
274, 282, 160, 343, 159, 428, 441, 432, 451, 202, 452
275, 343, 344, 282, 159, 382, 431, 432, 452, 453, 451
276, 348, 349, 288, 224, 367, 454, 447, 448, 455, 446
** ... 197 like lines cut

** Define element set Eall
*ELSET, ELSET=Eall
Evolumes



***********************************************************
** Element sets for materials and FEM element type (solid, shell, beam, fluid)
** written by write_element_sets_material_and_femelement_type function
*ELSET,ELSET=SolidMaterialSolid
Evolumes

***********************************************************
** constraints fixed node sets
** written by write_node_sets_constraints_fixed function
** FemConstraintFixed
*NSET,NSET=FemConstraintFixed
1,
2,
3,
4,
9,
10,
11,
12,
13,
14,
15,
16,
17,
18,
19,
20,
109,
110,
111,
112,
** ... 21 like lines cut

***********************************************************
** Materials
** written by write_materials function
** Young's modulus unit is MPa = N/mm2
** FreeCAD material name: CalculiX-Steel
** SolidMaterial
*MATERIAL, NAME=SolidMaterial
*ELASTIC
210000, 0.300

***********************************************************
** Sections
** written by write_femelementsets function
*SOLID SECTION, ELSET=SolidMaterialSolid, MATERIAL=SolidMaterial

***********************************************************
** At least one step is needed to run an CalculiX analysis of FreeCAD
** written by write_step_begin function
*STEP
*STATIC


***********************************************************
** Fixed Constraints
** written by write_constraints_fixed function
** FemConstraintFixed
*BOUNDARY
FemConstraintFixed,1
FemConstraintFixed,2
FemConstraintFixed,3


***********************************************************
** constraints force node loads
** written by write_constraints_force function
*CLOAD
** FemConstraintForce
** node loads on shape: Box:Face2
5,3,-0.0000000000000E+00
6,3,-0.0000000000000E+00
7,3,-0.0000000000000E+00
8,3,-0.0000000000000E+00
21,3,-0.0000000000000E+00
22,3,-1.8750000000000E+05
23,3,-1.8750000000000E+05
24,3,-0.0000000000000E+00
25,3,-1.8750000000000E+05
26,3,-1.8750000000000E+05
27,3,-0.0000000000000E+00
28,3,-1.8750000000000E+05
29,3,-1.8750000000000E+05
30,3,-0.0000000000000E+00
31,3,-1.8750000000000E+05
32,3,-1.8750000000000E+05
134,3,-0.0000000000000E+00
135,3,-0.0000000000000E+00
136,3,-0.0000000000000E+00
137,3,-0.0000000000000E+00
** ... 21 like lines cut



***********************************************************
** Outputs --> frd file
** written by write_outputs_types function
*NODE FILE
U
*EL FILE
S, E
** outputs --> dat file
** reaction forces for Constraint fixed
*NODE PRINT, NSET=FemConstraintFixed, TOTALS=ONLY
RF


***********************************************************
** written by write_step_end function
*END STEP 

***********************************************************
** CalculiX Input file
** written by write_footer function
**   written by    --> FreeCAD 0.19.21782 (Git)
**   written on    --> Mon Jun 29 22:09:12 2020
**   file name     --> FemCalculixCantilever3D_newSolver.FCStd
**   analysis name --> Analysis
**
**
**
**   Units
**
**   Geometry (mesh data)        --> mm
**   Materials (Young's modulus) --> N/mm2 = MPa
**   Loads (nodal loads)         --> N
**
