** written by FreeCAD inp file writer for CalculiX,Abaqus meshes
** highest dimension mesh elements only.

** Nodes
*Node, NSET=Nall
1, 0, 0, 10
2, 0, 0, 0
3, 0, 10, 10
4, 0, 10, 0
5, 10, 0, 10
6, 10, 0, 0
7, 10, 10, 10
8, 10, 10, 0
9, 0, 0, 5
10, 0, 0, 2.5
11, 0, 0, 7.5
12, 0, 5, 10
13, 0, 2.5, 10
14, 0, 7.5, 10
15, 0, 10, 5
16, 0, 10, 2.5
17, 0, 10, 7.5
18, 0, 5, 0
19, 0, 2.5, 0
20, 0, 7.5, 0
** ... 263 like lines cut


** Volume elements
*Element, TYPE=C3D10, ELSET=Evolumes
129, 70, 72, 147, 195, 90, 197, 198, 200, 199, 201
130, 72, 120, 122, 195, 203, 140, 202, 199, 204, 205
131, 148, 98, 95, 195, 207, 114, 206, 209, 208, 210
132, 45, 98, 48, 195, 212, 211, 64, 213, 208, 214
133, 174, 123, 120, 195, 216, 137, 215, 218, 217, 204
134, 45, 46, 174, 195, 66, 219, 220, 213, 221, 218
135, 170, 121, 172, 196, 223, 222, 192, 225, 224, 226
136, 47, 45, 173, 196, 63, 227, 228, 230, 229, 231
137, 99, 146, 95, 196, 233, 232, 117, 235, 234, 236
138, 71, 121, 70, 196, 238, 237, 92, 239, 224, 240
139, 97, 45, 47, 196, 242, 63, 241, 243, 229, 230
140, 70, 146, 74, 196, 245, 244, 89, 240, 234, 246
141, 48, 98, 148, 195, 211, 207, 247, 214, 208, 209
142, 174, 46, 123, 195, 219, 248, 216, 218, 221, 217
143, 173, 97, 47, 196, 249, 241, 228, 231, 243, 230
144, 74, 146, 99, 196, 244, 233, 250, 246, 234, 235
145, 147, 72, 122, 195, 197, 202, 251, 201, 199, 205
146, 71, 172, 121, 196, 252, 222, 238, 239, 226, 224
147, 30, 74, 70, 146, 80, 89, 91, 158, 244, 245
148, 33, 148, 98, 95, 152, 207, 105, 118, 206, 114
** ... 112 like lines cut

** Define element set Eall
*ELSET, ELSET=Eall
Evolumes



***********************************************************
** Element sets for materials and FEM element type (solid, shell, beam, fluid)
*ELSET,ELSET=MechanicalMaterialSolid
Evolumes

***********************************************************
** constraints fixed node sets
** Fixed
*NSET,NSET=Fixed
1,
2,
3,
4,
9,
10,
11,
12,
13,
14,
15,
16,
17,
18,
19,
20,
45,
46,
47,
48,
** ... 21 like lines cut

** Physical constants for SI(mm) unit system with Kelvins
*PHYSICAL CONSTANTS, ABSOLUTE ZERO=0, STEFAN BOLTZMANN=5.670374419e-11

***********************************************************
** Materials
** see information about units at file end
** FreeCAD material name: Steel-Generic
** MechanicalMaterial
*MATERIAL, NAME=MechanicalMaterial
*ELASTIC
200000,0.3
*EXPANSION, ZERO=0
0

***********************************************************
** Sections
*SOLID SECTION, ELSET=MechanicalMaterialSolid, MATERIAL=MechanicalMaterial

***********************************************************
** At least one step is needed to run an CalculiX analysis of FreeCAD
*STEP, INC=2000
*STATIC
1.0,1.0,1e-05,1.0

***********************************************************
** Fixed Constraints
** Fixed
*BOUNDARY
Fixed,1
Fixed,2
Fixed,3


***********************************************************
** constraints force node loads
** Force
*CLOAD
** node loads on shape: Box:Face6
1,3,-0
3,3,-0
5,3,-0
7,3,-0
12,3,-0
13,3,-833.3333333333
14,3,-833.3333333333
24,3,-0
25,3,-833.3333333333
26,3,-833.3333333333
36,3,-0
37,3,-833.3333333333
38,3,-833.3333333333
42,3,-0
43,3,-833.3333333333
44,3,-833.3333333333
170,3,-0
171,3,-0
172,3,-0
173,3,-0
** ... 21 like lines cut



***********************************************************
** constraints pressure element face loads
** Pressure
*DLOAD
** Box.Face2
147,P1,1000.0
158,P2,1000.0
159,P4,1000.0
161,P2,1000.0
209,P1,1000.0
212,P1,1000.0
213,P1,1000.0
214,P1,1000.0
243,P2,1000.0
244,P3,1000.0
245,P2,1000.0
246,P2,1000.0
248,P4,1000.0
249,P3,1000.0
250,P4,1000.0
252,P2,1000.0

***********************************************************
** Outputs --> frd file
*NODE FILE
U
*EL FILE
S, E
** outputs --> dat file
** reaction forces for Constraint fixed
*NODE PRINT, NSET=Fixed, TOTALS=ONLY
RF

*OUTPUT, FREQUENCY=1
***********************************************************
*END STEP

***********************************************************
** CalculiX Input file
**   written by    --> FreeCAD 1.2.0
**   written on    --> Fri May 15 16:32:34 2026
**   file name     -->
**   analysis name --> Analysis
**
**
***********************************************************
**  About units:
**  See ccx manual, ccx does not know about any unit.
**  Golden rule: The user must make sure that the numbers they provide have consistent units.
**  The user is the FreeCAD calculix writer module ;-)
**
**  The unit system which is used at Guido Dhondt's company: mm, N, s, K
**  Since Length and Mass are connected by Force, if Length is mm the Mass is in t to get N
**  The following units are used to write to inp file:
**
**  Length: mm (this includes the mesh geometry)
**  Mass: t
**  TimeSpan: s
**  Temperature: K
**
**  This leads to:
**  Force: N
**  Pressure: N/mm^2 == MPa (Young's Modulus has unit Pressure)
**  Density: t/mm^3
**  Gravity: mm/s^2
**  Thermal conductivity: t*mm/K/s^3 == as W/m/K == kW/mm/K
**  Specific Heat: mm^2/s^2/K = J/kg/K == kJ/t/K
**
