** written by FreeCAD inp file writer for CalculiX,Abaqus meshes
** highest dimension mesh elements only.

** Nodes
*Node, NSET=Nall
1, 0, 0, 0
2, 0, 0, 10
3, 0, 10, 0
4, 0, 10, 10
5, 10, 0, 0
6, 10, 0, 10
7, 10, 10, 0
8, 10, 10, 10
9, 0, 0, 5
10, 0, 0, 2.5
11, 0, 0, 7.5
12, 0, 5, 0
13, 0, 2.5, 0
14, 0, 7.5, 0
15, 0, 10, 5
16, 0, 10, 2.5
17, 0, 10, 7.5
18, 0, 5, 10
19, 0, 2.5, 10
20, 0, 7.5, 10
** ... 260 like lines cut


** Volume elements
*Element, TYPE=C3D10, ELSET=Evolumes
1, 95, 98, 47, 196, 103, 197, 198, 200, 199, 201
2, 147, 121, 145, 196, 203, 202, 161, 205, 204, 206
3, 73, 70, 27, 121, 84, 80, 83, 208, 207, 136
4, 72, 170, 30, 171, 209, 187, 75, 210, 181, 194
5, 9, 98, 47, 95, 101, 197, 54, 102, 103, 198
6, 172, 70, 30, 71, 211, 78, 186, 212, 93, 91
7, 170, 99, 36, 174, 213, 119, 184, 191, 214, 190
8, 12, 47, 149, 145, 57, 215, 150, 152, 216, 155
9, 70, 27, 123, 72, 80, 143, 217, 79, 77, 218
10, 39, 147, 121, 145, 160, 203, 132, 159, 161, 202
11, 70, 120, 121, 196, 219, 134, 207, 221, 220, 204
12, 70, 172, 170, 196, 211, 183, 222, 221, 223, 224
13, 95, 99, 170, 195, 104, 213, 225, 227, 226, 228
14, 145, 45, 47, 196, 229, 56, 216, 206, 230, 201
15, 70, 123, 120, 195, 217, 126, 219, 232, 231, 233
16, 47, 45, 95, 196, 56, 234, 198, 201, 230, 200
17, 121, 120, 145, 196, 134, 235, 202, 204, 220, 206
18, 145, 39, 120, 121, 159, 133, 235, 202, 132, 134
19, 70, 120, 27, 121, 219, 137, 80, 207, 134, 136
20, 9, 47, 45, 95, 54, 56, 52, 102, 198, 234
** ... 109 like lines cut

** Define element set Eall
*ELSET, ELSET=Eall
Evolumes



***********************************************************
** Element sets for materials and FEM element type (solid, shell, beam, fluid)
*ELSET,ELSET=MechanicalMaterialSolid
Evolumes

***********************************************************
** constraints fixed node sets
** FemConstraintFixed
*NSET,NSET=FemConstraintFixed
1,
2,
3,
4,
9,
10,
11,
12,
13,
14,
15,
16,
17,
18,
19,
20,
45,
46,
47,
48,
** ... 21 like lines cut

***********************************************************
** Materials
** see information about units at file end
** FreeCAD material name: Steel-Generic
** MechanicalMaterial
*MATERIAL, NAME=MechanicalMaterial
*ELASTIC
200000,0.3

***********************************************************
** Sections
*SOLID SECTION, ELSET=MechanicalMaterialSolid, MATERIAL=MechanicalMaterial

***********************************************************
** At least one step is needed to run an CalculiX analysis of FreeCAD
*STEP
*STATIC


***********************************************************
** Fixed Constraints
** FemConstraintFixed
*BOUNDARY
FemConstraintFixed,1
FemConstraintFixed,2
FemConstraintFixed,3


***********************************************************
** constraints force node loads
*CLOAD
** FemConstraintForce
** node loads on shape: Box:Face6
2,3,-0
4,3,-0
6,3,-0
8,3,-0
18,3,-0
19,3,-833.3333333333
20,3,-833.3333333333
30,3,-0
31,3,-833.3333333333
32,3,-833.3333333333
36,3,-0
37,3,-833.3333333333
38,3,-833.3333333333
42,3,-0
43,3,-833.3333333333
44,3,-833.3333333333
170,3,-0
171,3,-0
172,3,-0
173,3,-0
** ... 21 like lines cut



***********************************************************
** constraints pressure element face loads
** FemConstraintPressure
*DLOAD
** FemConstraintPressure: face load
3,P1,1000.0
6,P3,1000.0
9,P2,1000.0
36,P1,1000.0
38,P1,1000.0
56,P1,1000.0
61,P3,1000.0
67,P2,1000.0
68,P3,1000.0
75,P2,1000.0
76,P4,1000.0
78,P4,1000.0
79,P2,1000.0
90,P3,1000.0
105,P3,1000.0
125,P3,1000.0

***********************************************************
** Outputs --> frd file
*NODE FILE
U
*EL FILE
S, E
** outputs --> dat file
** reaction forces for Constraint fixed
*NODE PRINT, NSET=FemConstraintFixed, TOTALS=ONLY
RF

*OUTPUT, FREQUENCY=1
***********************************************************
*END STEP 

***********************************************************
** CalculiX Input file
**   written by    --> FreeCAD 0.21.0
**   written on    --> Tue Mar 28 06:53:21 2023
**   file name     --> 
**   analysis name --> Analysis
**
**
***********************************************************
**  About units:
**  See ccx manual, ccx does not know about any unit.
**  Golden rule: The user must make sure that the numbers they provide have consistent units.
**  The user is the FreeCAD calculix writer module ;-)
**
**  The unit system which is used at Guido Dhondt's company: mm, N, s, K
**  Since Length and Mass are connected by Force, if Length is mm the Mass is in t to get N
**  The following units are used to write to inp file:
**
**  Length: mm (this includes the mesh geometry)
**  Mass: t
**  TimeSpan: s
**  Temperature: K
**
**  This leads to:
**  Force: N
**  Pressure: N/mm^2 == MPa (Young's Modulus has unit Pressure)
**  Density: t/mm^3
**  Gravity: mm/s^2
**  Thermal conductivity: t*mm/K/s^3 == as W/m/K == kW/mm/K
**  Specific Heat: mm^2/s^2/K = J/kg/K == kJ/t/K
**
