** written by FreeCAD inp file writer for CalculiX,Abaqus meshes
** highest dimension mesh elements only.

** Nodes
*Node, NSET=Nall
1, 0, 0, 1000
2, 0, 0, 0
3, 0, 1000, 1000
4, 0, 1000, 0
5, 8000, 0, 1000
6, 8000, 0, 0
7, 8000, 1000, 1000
8, 8000, 1000, 0
9, 0, 0, 500
10, 0, 500, 1000
11, 0, 1000, 500
12, 0, 500, 0
13, 8000, 0, 500
14, 8000, 500, 1000
15, 8000, 1000, 500
16, 8000, 500, 0
17, 1600, 0, 0
18, 3200, 0, 0
19, 4800, 0, 0
20, 6400, 0, 0
** ... 215 like lines cut


** Volume elements
*Element, TYPE=C3D10, ELSET=Evolumes
125, 92, 37, 38, 122, 116, 42, 119, 179, 146, 149
126, 38, 8, 93, 121, 43, 101, 104, 133, 131, 180
127, 121, 6, 63, 20, 130, 73, 181, 132, 25, 75
128, 65, 152, 27, 28, 182, 168, 83, 89, 167, 32
129, 7, 151, 47, 93, 159, 162, 52, 102, 183, 103
130, 63, 29, 5, 151, 74, 34, 72, 184, 161, 160
131, 46, 47, 150, 92, 51, 177, 174, 115, 114, 185
132, 94, 123, 36, 37, 186, 141, 111, 118, 147, 41
133, 65, 18, 123, 19, 81, 138, 187, 80, 23, 139
134, 122, 64, 19, 20, 188, 86, 143, 144, 85, 24
135, 150, 29, 28, 64, 172, 33, 173, 189, 91, 88
136, 45, 46, 152, 94, 50, 176, 169, 110, 109, 190
137, 124, 35, 4, 95, 129, 39, 126, 191, 100, 98
138, 95, 44, 3, 153, 99, 48, 97, 192, 158, 156
139, 1, 153, 26, 66, 155, 157, 30, 69, 193, 70
140, 17, 124, 2, 66, 128, 127, 21, 71, 194, 68
141, 36, 35, 125, 96, 40, 137, 142, 113, 108, 195
142, 125, 17, 18, 67, 134, 22, 135, 196, 77, 76
143, 96, 45, 44, 154, 105, 49, 106, 197, 171, 166
144, 26, 27, 67, 154, 31, 84, 79, 164, 163, 198
** ... 80 like lines cut

** Define element set Eall
*ELSET, ELSET=Eall
Evolumes



***********************************************************
** Element sets for materials and FEM element type (solid, shell, beam, fluid)
*ELSET,ELSET=FemMaterialSolid
Evolumes

***********************************************************
** constraints fixed node sets
** ConstraintFixed
*NSET,NSET=ConstraintFixed
1,
2,
3,
4,
9,
10,
11,
12,
53,
54,
55,
56,
57,

** Physical constants for SI(mm) unit system with Kelvins
*PHYSICAL CONSTANTS, ABSOLUTE ZERO=0, STEFAN BOLTZMANN=5.670374419e-11

***********************************************************
** Materials
** see information about units at file end
** FreeCAD material name: CalculiX-Steel
** FemMaterial
*MATERIAL, NAME=FemMaterial
*ELASTIC
210000,0.3
*EXPANSION, ZERO=0
0

***********************************************************
** Sections
*SOLID SECTION, ELSET=FemMaterialSolid, MATERIAL=FemMaterial

***********************************************************
** At least one step is needed to run an CalculiX analysis of FreeCAD
*STEP, INC=2000
*STATIC
1.0,1.0,1e-05,1.0

***********************************************************
** Fixed Constraints
** ConstraintFixed
*BOUNDARY
ConstraintFixed,1
ConstraintFixed,2
ConstraintFixed,3


***********************************************************
** constraints force node loads
** ConstraintForce
*CLOAD
** node loads on shape: Box:Face2
5,3,-0
6,3,-0
7,3,-0
8,3,-0
13,3,-750000
14,3,-750000
15,3,-750000
16,3,-750000
58,3,-0
59,3,-1500000
60,3,-1500000
61,3,-1500000
62,3,-1500000



***********************************************************
** Outputs --> frd file
*NODE FILE
U
*EL FILE
S, E
** outputs --> dat file
** reaction forces for Constraint fixed
*NODE PRINT, NSET=ConstraintFixed, TOTALS=ONLY
RF

*OUTPUT, FREQUENCY=1
***********************************************************
*END STEP

***********************************************************
** CalculiX Input file
**   written by    --> FreeCAD 1.2.0
**   written on    --> Fri May 15 16:49:04 2026
**   file name     -->
**   analysis name --> Analysis
**
**
***********************************************************
**  About units:
**  See ccx manual, ccx does not know about any unit.
**  Golden rule: The user must make sure that the numbers they provide have consistent units.
**  The user is the FreeCAD calculix writer module ;-)
**
**  The unit system which is used at Guido Dhondt's company: mm, N, s, K
**  Since Length and Mass are connected by Force, if Length is mm the Mass is in t to get N
**  The following units are used to write to inp file:
**
**  Length: mm (this includes the mesh geometry)
**  Mass: t
**  TimeSpan: s
**  Temperature: K
**
**  This leads to:
**  Force: N
**  Pressure: N/mm^2 == MPa (Young's Modulus has unit Pressure)
**  Density: t/mm^3
**  Gravity: mm/s^2
**  Thermal conductivity: t*mm/K/s^3 == as W/m/K == kW/mm/K
**  Specific Heat: mm^2/s^2/K = J/kg/K == kJ/t/K
**
