** written by FreeCAD inp file writer for CalculiX,Abaqus meshes
** highest dimension mesh elements only.

** Nodes
*Node, NSET=Nall
1, 0, 500, 0
2, 0, 500, 1000
3, 8000, 500, 0
4, 8000, 500, 1000
5, 0, 500, 500
6, 0, 500, 250
7, 0, 500, 750
8, 500, 500, 0
9, 1000, 500, 0
10, 1500, 500, 0
11, 2000, 500, 0
12, 2500, 500, 0
13, 3000, 500, 0
14, 3500, 500, 0
15, 4000, 500, 0
16, 4500, 500, 0
17, 5000, 500, 0
18, 5500, 500, 0
19, 6000, 500, 0
20, 6500, 500, 0
** ... 157 like lines cut


** Face elements
*Element, TYPE=S6, ELSET=Efaces
37, 43, 81, 44, 91, 92, 59
38, 45, 82, 46, 93, 94, 61
39, 47, 83, 48, 95, 96, 63
40, 49, 84, 50, 97, 98, 65
41, 51, 85, 52, 99, 100, 67
42, 53, 86, 54, 101, 102, 69
43, 43, 73, 81, 103, 104, 91
44, 44, 81, 74, 92, 105, 106
45, 45, 74, 82, 107, 108, 93
46, 46, 82, 75, 94, 109, 110
47, 47, 75, 83, 111, 112, 95
48, 48, 83, 76, 96, 113, 114
49, 49, 76, 84, 115, 116, 97
50, 50, 84, 77, 98, 117, 118
51, 51, 77, 85, 119, 120, 99
52, 52, 85, 78, 100, 121, 122
53, 53, 78, 86, 123, 124, 101
54, 54, 86, 79, 102, 125, 126
55, 21, 80, 79, 127, 128, 129
56, 55, 79, 80, 130, 128, 131
** ... 50 like lines cut

** Define element set Eall
*ELSET, ELSET=Eall
Efaces



***********************************************************
** Element sets for materials and FEM element type (solid, shell, beam, fluid)
*ELSET,ELSET=MechanicalMaterialThickness
Efaces

***********************************************************
** constraints fixed node sets
** ConstraintFixed
*NSET,NSET=ConstraintFixed
1,
2,
5,
6,
7,

***********************************************************
** Materials
** see information about units at file end
** FreeCAD material name: Calculix-Steel
** MechanicalMaterial
*MATERIAL, NAME=MechanicalMaterial
*ELASTIC
210000,0.3

***********************************************************
** Sections
*SHELL SECTION, ELSET=MechanicalMaterialThickness, MATERIAL=MechanicalMaterial
1000

***********************************************************
** At least one step is needed to run an CalculiX analysis of FreeCAD
*STEP
*STATIC


***********************************************************
** Fixed Constraints
** ConstraintFixed
*BOUNDARY
ConstraintFixed,1
ConstraintFixed,2
ConstraintFixed,3
ConstraintFixed,4
ConstraintFixed,5
ConstraintFixed,6


***********************************************************
** constraints force node loads
*CLOAD
** ConstraintForce
** node loads on shape: CanileverPlate:Edge3
3,3,-750000.0
4,3,-750000.0
39,3,-1500000.0
40,3,-3000000.0
41,3,-3000000.0



***********************************************************
** Outputs --> frd file
*NODE FILE, OUTPUT=2d
U
*EL FILE
S, E
** outputs --> dat file
** reaction forces for Constraint fixed
*NODE PRINT, NSET=ConstraintFixed, TOTALS=ONLY
RF


***********************************************************
*END STEP 

***********************************************************
** CalculiX Input file
**   written by    --> FreeCAD 0.21.0
**   written on    --> Tue Mar 28 04:06:59 2023
**   file name     --> test.FCStd
**   analysis name --> Analysis
**
**
***********************************************************
**  About units:
**  See ccx manual, ccx does not know about any unit.
**  Golden rule: The user must make sure that the numbers they provide have consistent units.
**  The user is the FreeCAD calculix writer module ;-)
**
**  The unit system which is used at Guido Dhondt's company: mm, N, s, K
**  Since Length and Mass are connected by Force, if Length is mm the Mass is in t to get N
**  The following units are used to write to inp file:
**
**  Length: mm (this includes the mesh geometry)
**  Mass: t
**  TimeSpan: s
**  Temperature: K
**
**  This leads to:
**  Force: N
**  Pressure: N/mm^2 == MPa (Young's Modulus has unit Pressure)
**  Density: t/mm^3
**  Gravity: mm/s^2
**  Thermal conductivity: t*mm/K/s^3 == as W/m/K == kW/mm/K
**  Specific Heat: mm^2/s^2/K = J/kg/K == kJ/t/K
**
