** written by FreeCAD inp file writer for CalculiX,Abaqus meshes
** highest dimension mesh elements only.

** Nodes
*Node, NSET=Nall
1, 0, -75, 0
2, 0, -75, 10.7
3, 0, -3.55, 0
4, 0, -3.55, 10.7
5, 10000, -75, 0
6, 10000, -75, 10.7
7, 10000, -3.55, 0
8, 10000, -3.55, 10.7
9, 0, 3.55, 0
10, 0, 3.55, 10.7
11, 10000, 3.55, 0
12, 10000, 3.55, 10.7
13, 0, 75, 0
14, 0, 75, 10.7
15, 10000, 75, 0
16, 10000, 75, 10.7
17, 0, -3.55, 150
18, 0, -3.55, 289.3
19, 0, 3.55, 150
20, 0, 3.55, 289.3
** ... 55591 like lines cut


** Volume elements
*Element, TYPE=C3D8, ELSET=Evolumes
15877, 10153, 1051, 3, 38, 11650, 1550, 4, 42
15878, 5, 46, 10154, 301, 6, 50, 11651, 800
15879, 10154, 46, 7, 1299, 11651, 50, 8, 1798
15880, 54, 55, 10155, 10278, 553, 554, 11652, 11775
15881, 10277, 299, 300, 10279, 11774, 798, 799, 11776
15882, 55, 56, 10280, 10155, 554, 555, 11777, 11652
15883, 10280, 56, 57, 10156, 11777, 555, 556, 11653
15884, 57, 58, 10281, 10156, 556, 557, 11778, 11653
15885, 10281, 58, 59, 10157, 11778, 557, 558, 11654
15886, 59, 60, 10282, 10157, 558, 559, 11779, 11654
15887, 10282, 60, 61, 10158, 11779, 559, 560, 11655
15888, 61, 62, 10283, 10158, 560, 561, 11780, 11655
15889, 10283, 62, 63, 10159, 11780, 561, 562, 11656
15890, 63, 64, 10284, 10159, 562, 563, 11781, 11656
15891, 10284, 64, 65, 10160, 11781, 563, 564, 11657
15892, 65, 66, 10285, 10160, 564, 565, 11782, 11657
15893, 10285, 66, 67, 10161, 11782, 565, 566, 11658
15894, 67, 68, 10286, 10161, 566, 567, 11783, 11658
15895, 10286, 68, 69, 10162, 11783, 567, 568, 11659
15896, 69, 70, 10287, 10162, 568, 569, 11784, 11659
** ... 4480 like lines cut

** Define element set Eall
*ELSET, ELSET=Eall
Evolumes



***********************************************************
** Element sets for materials and FEM element type (solid, shell, beam, fluid)
** written by write_element_sets_material_and_femelement_type function
*ELSET,ELSET=MechanicalMaterialSolid
Evolumes

***********************************************************
** constraints displacement node sets
** written by write_node_sets_constraints_displacement function
** FemConstraintDisplacement
*NSET,NSET=FemConstraintDisplacement
4,
8,
10,
12,
17,
18,
19,
20,
21,
22,
23,
24,
2051,
2054,
4065,
4066,
4067,
4068,
4069,
4070,
** ... 82 like lines cut
** FemConstraintDisplacement2
*NSET,NSET=FemConstraintDisplacement2
17,

***********************************************************
** Materials
** written by write_materials function
** Young's modulus unit is MPa = N/mm2
** FreeCAD material name: CalculiX-Steel
** MechanicalMaterial
*MATERIAL, NAME=MechanicalMaterial
*ELASTIC
210000, 0.300

***********************************************************
** Sections
** written by write_femelementsets function
*SOLID SECTION, ELSET=MechanicalMaterialSolid, MATERIAL=MechanicalMaterial

***********************************************************
** At least one step is needed to run an CalculiX analysis of FreeCAD
** written by write_step_begin function
*STEP
*BUCKLE
1


***********************************************************
** Displacement constraint applied
** written by write_constraints_displacement function
** FemConstraintDisplacement
*BOUNDARY
FemConstraintDisplacement,2
FemConstraintDisplacement,3
** FemConstraintDisplacement2
*BOUNDARY
FemConstraintDisplacement2,1


***********************************************************
** constraints force node loads
** written by write_constraints_force function
*CLOAD
** FemConstraintForce
** node loads on shape: beam:Face14
18,1,7.1375000000000E+01
20,1,7.1375000000000E+01
25,1,5.9541666666667E+01
26,1,5.9541666666667E+01
27,1,7.1375000000000E+01
31,1,7.1375000000000E+01
33,1,5.9541666666667E+01
34,1,5.9541666666667E+01
6094,1,1.1908333333333E+02
6098,1,1.1908333333333E+02
8109,1,1.1908333333333E+02
8113,1,1.1908333333333E+02

** node loads on shape: beam:Face8
5,1,5.9541666666667E+01
6,1,5.9541666666667E+01
7,1,7.1375000000000E+01
8,1,7.1375000000000E+01
11,1,7.1375000000000E+01
12,1,7.1375000000000E+01
15,1,5.9541666666667E+01
16,1,5.9541666666667E+01
46,1,1.1908333333333E+02
50,1,1.1908333333333E+02
3060,1,1.1908333333333E+02
3064,1,1.1908333333333E+02


** FemConstraintForce001
** node loads on shape: beam:Face22
22,1,-7.1375000000000E+01
24,1,-7.1375000000000E+01
28,1,-5.9541666666667E+01
29,1,-5.9541666666667E+01
30,1,-7.1375000000000E+01
32,1,-7.1375000000000E+01
35,1,-5.9541666666667E+01
36,1,-5.9541666666667E+01
6102,1,-1.1908333333333E+02
6106,1,-1.1908333333333E+02
8116,1,-1.1908333333333E+02
8120,1,-1.1908333333333E+02

** node loads on shape: beam:Face1
1,1,-5.9541666666667E+01
2,1,-5.9541666666667E+01
3,1,-7.1375000000000E+01
4,1,-7.1375000000000E+01
9,1,-7.1375000000000E+01
10,1,-7.1375000000000E+01
13,1,-5.9541666666667E+01
14,1,-5.9541666666667E+01
38,1,-1.1908333333333E+02
42,1,-1.1908333333333E+02
3053,1,-1.1908333333333E+02
3057,1,-1.1908333333333E+02



***********************************************************
** Outputs --> frd file
** written by write_outputs_types function
*NODE FILE
U
*EL FILE
S, E

***********************************************************
** written by write_step_end function
*END STEP 

***********************************************************
** CalculiX Input file
** written by write_footer function
**   written by    --> FreeCAD 0.20.24791 (Git)
**   written on    --> Sun Apr 25 10:30:51 2021
**   file name     --> 
**   analysis name --> Analysis
**
**
***********************************************************
**  About units:
**  See ccx manual, ccx does not know about any unit.
**  Golden rule: The user must make sure that the numbers he provides have consistent units.
**  The user is the FreeCAD calculix writer module ;-)
**
**  The unit system which is used at Guido Dhondt's company: mm, N, s, K
**  Since Length and Mass are connected by Force, if Length is mm the Mass is in t to get N
**  The following units are used to write to inp file:
**
**  Length: mm (this includes the mesh geometry)
**  Mass: t
**  TimeSpan: s
**  Temperature: K
**
**  This leads to:
**  Force: N
**  Pressure: N/mm^2
**  Density: t/mm^3
**  Gravity: mm/s^2
**  Thermal conductivity: t*mm/K/s^3 (same as W/m/K)
**  Specific Heat: mm^2/s^2/K (same as J/kg/K)
**
