** written by FreeCAD inp file writer for CalculiX,Abaqus meshes
** highest dimension mesh elements only.

** Nodes
*Node, NSET=Nall
1, 0, 0, 8
2, 0, 0, 0
3, 0, 1.5, 8
4, 0, 1.5, 0
5, 1, 0, 8
6, 1, 0, 0
7, 1, 1.5, 8
8, 1, 1.5, 0
9, 0, 0, 1
10, 0, 0, 2
11, 0, 0, 3
12, 0, 0, 4
13, 0, 0, 5
14, 0, 0, 6
15, 0, 0, 7
16, 0, 0, 0.5
17, 0, 0, 1.5
18, 0, 0, 2.5
19, 0, 0, 3.5
20, 0, 0, 4.5
** ... 380 like lines cut


** Volume elements
*Element, TYPE=C3D10, ELSET=Evolumes
201, 90, 234, 139, 138, 301, 299, 300, 303, 302, 169
202, 86, 134, 135, 190, 305, 157, 304, 307, 306, 308
203, 86, 236, 135, 134, 310, 309, 304, 305, 311, 157
204, 90, 139, 188, 138, 300, 312, 313, 303, 169, 314
205, 89, 137, 187, 48, 317, 315, 316, 318, 161, 217
206, 233, 85, 137, 138, 321, 319, 320, 323, 322, 166
207, 137, 30, 66, 232, 324, 263, 178, 325, 255, 262
208, 88, 136, 89, 186, 327, 326, 114, 329, 328, 330
209, 88, 136, 29, 232, 327, 331, 126, 333, 332, 256
210, 233, 30, 137, 89, 261, 324, 320, 334, 128, 317
211, 233, 137, 85, 89, 320, 319, 321, 334, 317, 117
212, 89, 136, 137, 186, 326, 163, 317, 330, 328, 335
213, 11, 136, 88, 186, 336, 327, 110, 208, 328, 329
214, 136, 88, 89, 232, 327, 114, 326, 332, 333, 337
215, 232, 136, 29, 65, 332, 331, 256, 257, 176, 258
216, 136, 232, 137, 66, 332, 325, 163, 175, 262, 178
217, 88, 89, 12, 186, 114, 113, 109, 329, 330, 209
218, 85, 188, 13, 49, 338, 218, 116, 339, 222, 220
219, 31, 89, 233, 85, 129, 334, 260, 130, 117, 321
220, 30, 89, 88, 232, 128, 114, 127, 255, 337, 333
** ... 155 like lines cut

** Define element set Eall
*ELSET, ELSET=Eall
Evolumes



***********************************************************
** Element sets for materials and FEM element type (solid, shell, beam, fluid)
*ELSET,ELSET=MechanicalMaterialSolid
Evolumes

***********************************************************
** constraints fixed node sets
** Fixed
*NSET,NSET=Fixed
2,
4,
6,
8,
42,
43,
44,
78,
79,
80,
81,
83,
277,
278,
279,
280,
281,
282,
283,
284,
285,
286,
287,

** Physical constants for SI(mm) unit system with Kelvins
*PHYSICAL CONSTANTS, ABSOLUTE ZERO=0, STEFAN BOLTZMANN=5.670374419e-11

***********************************************************
** Materials
** see information about units at file end
** FreeCAD material name: CalculiX-Steel
** MechanicalMaterial
*MATERIAL, NAME=MechanicalMaterial
*ELASTIC
210000,0.3

***********************************************************
** Sections
*SOLID SECTION, ELSET=MechanicalMaterialSolid, MATERIAL=MechanicalMaterial

***********************************************************
** At least one step is needed to run an CalculiX analysis of FreeCAD
*STEP
*BUCKLE
10,0.01

***********************************************************
** Fixed Constraints
** Fixed
*BOUNDARY
Fixed,1
Fixed,2
Fixed,3


***********************************************************
** constraints force node loads
** Force
*CLOAD
** node loads on shape: Beam:Face6
1,3,-0
3,3,-0
5,3,-0
7,3,-0
24,3,-0
25,3,-0.875
26,3,-0.875
60,3,-0
61,3,-0.875
62,3,-0.875
82,3,-1.125
84,3,-1.175
288,3,-0
289,3,-0
290,3,-2
291,3,-2
292,3,-1.475
293,3,-2.05
294,3,-2.05
295,3,-1.475
296,3,-1.475
297,3,-1.475
298,3,-1.2



***********************************************************
** Outputs --> frd file
*NODE FILE
U
*EL FILE
S, E
** outputs --> dat file
** reaction forces for Constraint fixed
*NODE PRINT, NSET=Fixed, TOTALS=ONLY
RF

*OUTPUT, FREQUENCY=1
***********************************************************
*END STEP

***********************************************************
** CalculiX Input file
**   written by    --> FreeCAD 26.3.0
**   written on    --> Fri Jul 31 11:52:45 2026
**   file name     -->
**   analysis name --> Analysis
**
**
***********************************************************
**  About units:
**  See ccx manual, ccx does not know about any unit.
**  Golden rule: The user must make sure that the numbers they provide have consistent units.
**  The user is the FreeCAD calculix writer module ;-)
**
**  The unit system which is used at Guido Dhondt's company: mm, N, s, K
**  Since Length and Mass are connected by Force, if Length is mm the Mass is in t to get N
**  The following units are used to write to inp file:
**
**  Length: mm (this includes the mesh geometry)
**  Mass: t
**  TimeSpan: s
**  Temperature: K
**
**  This leads to:
**  Force: N
**  Pressure: N/mm^2 == MPa (Young's Modulus has unit Pressure)
**  Density: t/mm^3
**  Gravity: mm/s^2
**  Thermal conductivity: t*mm/K/s^3 == as W/m/K == kW/mm/K
**  Specific Heat: mm^2/s^2/K = J/kg/K == kJ/t/K
**
