** written by FreeCAD inp file writer for CalculiX,Abaqus meshes
** highest dimension mesh elements only.

** Nodes
*Node, NSET=Nall
1, 0, 500, 500
2, 8000, 500, 500
3, 148.1481481481, 500, 500
4, 296.2962962963, 500, 500
5, 444.4444444444, 500, 500
6, 592.5925925926, 500, 500
7, 740.7407407407, 500, 500
8, 888.8888888889, 500, 500
9, 1037.037037037, 500, 500
10, 1185.185185185, 500, 500
11, 1333.333333333, 500, 500
12, 1481.481481481, 500, 500
13, 1629.62962963, 500, 500
14, 1777.777777778, 500, 500
15, 1925.925925926, 500, 500
16, 2074.074074074, 500, 500
17, 2222.222222222, 500, 500
18, 2370.37037037, 500, 500
19, 2518.518518519, 500, 500
20, 2666.666666667, 500, 500
** ... 35 like lines cut


** Edge elements
*Element, TYPE=B31, ELSET=Eedges
1, 1, 3
2, 3, 4
3, 4, 5
4, 5, 6
5, 6, 7
6, 7, 8
7, 8, 9
8, 9, 10
9, 10, 11
10, 11, 12
11, 12, 13
12, 13, 14
13, 14, 15
14, 15, 16
15, 16, 17
16, 17, 18
17, 18, 19
18, 19, 20
19, 20, 21
20, 21, 22
** ... 34 like lines cut

** Define element set Eall
*ELSET, ELSET=Eall
Eedges



***********************************************************
** Element sets for materials and FEM element type (solid, shell, beam, fluid)
*ELSET,ELSET=M0B0RstdD0
1,
2,
3,
4,
5,
6,
7,
8,
9,
10,
11,
12,
13,
14,
15,
16,
17,
18,
19,
20,
** ... 34 like lines cut

***********************************************************
** constraints fixed node sets
** ConstraintFixed
*NSET,NSET=ConstraintFixed
1,

***********************************************************
** Materials
** see information about units at file end
** FreeCAD material name: Calculix-Steel
** MechanicalMaterial
*MATERIAL, NAME=MechanicalMaterial
*ELASTIC
210000,0.3

***********************************************************
** Sections
*BEAM SECTION, ELSET=M0B0RstdD0, MATERIAL=MechanicalMaterial, SECTION=RECT
1000,1000
-0, 1, 0

***********************************************************
** At least one step is needed to run an CalculiX analysis of FreeCAD
*STEP
*STATIC


***********************************************************
** Fixed Constraints
** ConstraintFixed
*BOUNDARY
ConstraintFixed,1
ConstraintFixed,2
ConstraintFixed,3
ConstraintFixed,4
ConstraintFixed,5
ConstraintFixed,6


***********************************************************
** constraints force node loads
*CLOAD
** ConstraintForce
** node load on shape: CantileverLine:Vertex2
2,3,-9000000.0



***********************************************************
** Outputs --> frd file
*NODE FILE, OUTPUT=2d
U
*EL FILE
S, E
** outputs --> dat file
** reaction forces for Constraint fixed
*NODE PRINT, NSET=ConstraintFixed, TOTALS=ONLY
RF


***********************************************************
*END STEP 

***********************************************************
** CalculiX Input file
**   written by    --> FreeCAD 0.21.0
**   written on    --> Tue Mar 28 04:06:59 2023
**   file name     --> test.FCStd
**   analysis name --> Analysis
**
**
***********************************************************
**  About units:
**  See ccx manual, ccx does not know about any unit.
**  Golden rule: The user must make sure that the numbers they provide have consistent units.
**  The user is the FreeCAD calculix writer module ;-)
**
**  The unit system which is used at Guido Dhondt's company: mm, N, s, K
**  Since Length and Mass are connected by Force, if Length is mm the Mass is in t to get N
**  The following units are used to write to inp file:
**
**  Length: mm (this includes the mesh geometry)
**  Mass: t
**  TimeSpan: s
**  Temperature: K
**
**  This leads to:
**  Force: N
**  Pressure: N/mm^2 == MPa (Young's Modulus has unit Pressure)
**  Density: t/mm^3
**  Gravity: mm/s^2
**  Thermal conductivity: t*mm/K/s^3 == as W/m/K == kW/mm/K
**  Specific Heat: mm^2/s^2/K = J/kg/K == kJ/t/K
**
