** written by FreeCAD inp file writer for CalculiX,Abaqus meshes
** highest dimension mesh elements only.

** Nodes
*Node, NSET=Nall
1, 8000, 1000, 0
2, 8000, 1000, 1000
3, 8000, 0, 0
4, 8000, 0, 1000
5, 0, 1000, 0
6, 0, 1000, 1000
7, 0, 0, 0
8, 0, 0, 1000
9, 728, 1000, 1000
10, 1456, 1000, 1000
11, 2184, 1000, 1000
12, 2912, 1000, 1000
13, 3640, 1000, 1000
14, 4368, 1000, 1000
15, 5096, 1000, 1000
16, 5824, 1000, 1000
17, 6552, 1000, 1000
18, 7280, 1000, 1000
19, 728, 0, 1000
20, 1456, 0, 1000
** ... 208 like lines cut


** Volume elements
*Element, TYPE=C3D10, ELSET=Evolumes
149, 19, 40, 10, 20, 168, 196, 106, 66, 171, 107
150, 31, 10, 30, 40, 150, 149, 79, 128, 196, 129
151, 17, 38, 18, 47, 163, 166, 62, 197, 140, 198
152, 41, 32, 11, 12, 130, 152, 199, 200, 165, 56
153, 32, 12, 41, 42, 165, 200, 130, 143, 201, 92
154, 21, 42, 12, 22, 172, 201, 110, 68, 185, 123
155, 31, 10, 40, 11, 150, 196, 128, 151, 55, 202
156, 12, 11, 41, 21, 56, 199, 200, 110, 109, 173
157, 41, 20, 11, 40, 170, 108, 199, 91, 171, 202
158, 41, 20, 21, 11, 170, 67, 173, 199, 108, 109
159, 11, 32, 41, 31, 152, 130, 199, 151, 80, 131
160, 10, 11, 20, 40, 55, 108, 107, 196, 202, 171
161, 17, 38, 47, 37, 163, 140, 197, 162, 86, 141
162, 18, 38, 49, 48, 166, 203, 204, 205, 145, 206
163, 15, 46, 45, 36, 207, 96, 208, 159, 139, 137
164, 16, 47, 46, 37, 209, 97, 210, 161, 141, 138
165, 4, 18, 2, 49, 122, 63, 64, 189, 204, 190
166, 17, 18, 27, 47, 62, 121, 120, 197, 198, 183
167, 18, 38, 48, 47, 166, 145, 205, 198, 140, 98
168, 23, 12, 42, 22, 111, 201, 175, 69, 123, 185
** ... 59 like lines cut

** Define element set Eall
*ELSET, ELSET=Eall
Evolumes



***********************************************************
** Element sets for materials and FEM element type (solid, shell, beam, fluid)
*ELSET,ELSET=FemMaterialSolid
Evolumes

***********************************************************
** constraints fixed node sets
** ConstraintFixed
*NSET,NSET=ConstraintFixed
5,
6,
7,
8,
50,
52,
76,
101,
103,
192,
193,
194,
195,

***********************************************************
** Materials
** see information about units at file end
** FreeCAD material name: CalculiX-Steel
** FemMaterial
*MATERIAL, NAME=FemMaterial
*ELASTIC
210000,0.3

***********************************************************
** Sections
*SOLID SECTION, ELSET=FemMaterialSolid, MATERIAL=FemMaterial

***********************************************************
** At least one step is needed to run an CalculiX analysis of FreeCAD
*STEP
*STATIC


***********************************************************
** Fixed Constraints
** ConstraintFixed
*BOUNDARY
ConstraintFixed,1
ConstraintFixed,2
ConstraintFixed,3


***********************************************************
** constraints force node loads
*CLOAD
** ConstraintForce
** node loads on shape: Box:Face2
1,3,-0.0
2,3,-0.0
3,3,-0.0
4,3,-0.0
49,3,-0.0
64,3,-750000.0000000001
88,3,-750000.0000000001
100,3,-750000.0000000001
102,3,-750000.0000000001
188,3,-1500000.0000000002
189,3,-1500000.0000000002
190,3,-1500000.0000000002
191,3,-1500000.0000000002



***********************************************************
** Outputs --> frd file
*NODE FILE
U
*EL FILE
S, E
** outputs --> dat file
** reaction forces for Constraint fixed
*NODE PRINT, NSET=ConstraintFixed, TOTALS=ONLY
RF


***********************************************************
*END STEP 

***********************************************************
** CalculiX Input file
**   written by    --> FreeCAD 0.21.0
**   written on    --> Tue Mar 28 05:26:29 2023
**   file name     --> ccx_cantilever_faceload.FCStd
**   analysis name --> Analysis
**
**
***********************************************************
**  About units:
**  See ccx manual, ccx does not know about any unit.
**  Golden rule: The user must make sure that the numbers they provide have consistent units.
**  The user is the FreeCAD calculix writer module ;-)
**
**  The unit system which is used at Guido Dhondt's company: mm, N, s, K
**  Since Length and Mass are connected by Force, if Length is mm the Mass is in t to get N
**  The following units are used to write to inp file:
**
**  Length: mm (this includes the mesh geometry)
**  Mass: t
**  TimeSpan: s
**  Temperature: K
**
**  This leads to:
**  Force: N
**  Pressure: N/mm^2 == MPa (Young's Modulus has unit Pressure)
**  Density: t/mm^3
**  Gravity: mm/s^2
**  Thermal conductivity: t*mm/K/s^3 == as W/m/K == kW/mm/K
**  Specific Heat: mm^2/s^2/K = J/kg/K == kJ/t/K
**
