** written by FreeCAD inp file writer for CalculiX,Abaqus meshes
** highest dimension mesh elements only.

** Nodes
*Node, NSET=Nall
1, 25, -6e-15, 500
2, 25, -6e-15, 0
3, 475, 76, 475
4, -25, 76, 475
5, 0, 76, 475
6, 24.51963201008, 4.877258050403, 500
7, 23.09698831278, 9.567085809127, 500
8, 20.78674030756, 13.88925582549, 500
9, 17.67766952966, 17.67766952966, 500
10, 13.88925582549, 20.78674030756, 500
11, 9.567085809127, 23.09698831278, 500
12, 4.877258050403, 24.51963201008, 500
13, 5.704195973019e-14, 25, 500
14, -4.877258050403, 24.51963201008, 500
15, -9.567085809127, 23.09698831278, 500
16, -13.88925582549, 20.78674030756, 500
17, -17.67766952966, 17.67766952966, 500
18, -20.78674030756, 13.88925582549, 500
19, -23.09698831278, 9.567085809127, 500
20, -24.51963201008, 4.877258050403, 500
** ... 7682 like lines cut


** Face elements
*Element, TYPE=S3, ELSET=Efaces
329, 327, 329, 328
330, 330, 332, 331
331, 333, 335, 334
332, 336, 338, 337
333, 339, 341, 340
334, 342, 344, 343
335, 345, 347, 346
336, 348, 350, 349
337, 331, 332, 351
338, 352, 354, 353
339, 355, 357, 356
340, 358, 360, 359
341, 361, 363, 362
342, 355, 356, 364
343, 349, 350, 365
344, 361, 362, 366
345, 367, 369, 368
346, 370, 372, 371
347, 373, 375, 374
348, 376, 378, 377
** ... 15256 like lines cut

** Define element set Eall
*ELSET, ELSET=Eall
Efaces



***********************************************************
** Element sets for materials and FEM element type (solid, shell, beam, fluid)
*ELSET,ELSET=MechanicalMaterialShellThickness
Efaces

***********************************************************
** constraints fixed node sets
** ConstraintFixed
*NSET,NSET=ConstraintFixed
2,
3,
136,
137,
138,
139,
140,
141,
142,
143,
144,
145,
146,
147,
148,
149,
150,
151,
152,
153,
** ... 44 like lines cut

***********************************************************
** constraints contact surface sets
** ConstraintContact
*SURFACE, NAME=DEPConstraintContact
329,S2
330,S2
331,S2
332,S2
333,S2
334,S2
335,S2
336,S2
337,S2
338,S2
339,S2
340,S2
341,S2
342,S2
343,S2
344,S2
345,S2
346,S2
347,S2
348,S2
** ... 7478 like lines cut
*SURFACE, NAME=INDConstraintContact
7827,S2
7828,S2
7829,S2
7830,S2
7831,S2
7832,S2
7833,S2
7834,S2
7835,S2
7836,S2
7837,S2
7838,S2
7839,S2
7840,S2
7841,S2
7842,S2
7843,S2
7844,S2
7845,S2
7846,S2
** ... 7758 like lines cut

***********************************************************
** Materials
** see information about units at file end
** FreeCAD material name: AlCuMgPb
** MechanicalMaterial
*MATERIAL, NAME=MechanicalMaterial
*ELASTIC
72000,0.3

***********************************************************
** Sections
*SHELL SECTION, ELSET=MechanicalMaterialShellThickness, MATERIAL=MechanicalMaterial
0.5

***********************************************************
** Contact Constraints
** ConstraintContact
*CONTACT PAIR, INTERACTION=INTConstraintContact,TYPE=SURFACE TO SURFACE
DEPConstraintContact,INDConstraintContact
*SURFACE INTERACTION, NAME=INTConstraintContact
*SURFACE BEHAVIOR,PRESSURE-OVERCLOSURE=LINEAR
1000000

***********************************************************
** At least one step is needed to run an CalculiX analysis of FreeCAD
*STEP
*STATIC


***********************************************************
** Fixed Constraints
** ConstraintFixed
*BOUNDARY
ConstraintFixed,1
ConstraintFixed,2
ConstraintFixed,3
ConstraintFixed,4
ConstraintFixed,5
ConstraintFixed,6


***********************************************************
** constraints force node loads
*CLOAD
** ConstraintForce
** node load on shape: Load_place_point:Vertex1
5,2,-5000.0



***********************************************************
** Outputs --> frd file
*NODE FILE, OUTPUT=3d
U
*EL FILE
S, E
** outputs --> dat file
** reaction forces for Constraint fixed
*NODE PRINT, NSET=ConstraintFixed, TOTALS=ONLY
RF


***********************************************************
*END STEP 

***********************************************************
** CalculiX Input file
**   written by    --> FreeCAD 0.21.0
**   written on    --> Tue Mar 28 05:18:47 2023
**   file name     --> Contact_Shell_Shell.FCStd
**   analysis name --> Analysis
**
**
***********************************************************
**  About units:
**  See ccx manual, ccx does not know about any unit.
**  Golden rule: The user must make sure that the numbers they provide have consistent units.
**  The user is the FreeCAD calculix writer module ;-)
**
**  The unit system which is used at Guido Dhondt's company: mm, N, s, K
**  Since Length and Mass are connected by Force, if Length is mm the Mass is in t to get N
**  The following units are used to write to inp file:
**
**  Length: mm (this includes the mesh geometry)
**  Mass: t
**  TimeSpan: s
**  Temperature: K
**
**  This leads to:
**  Force: N
**  Pressure: N/mm^2 == MPa (Young's Modulus has unit Pressure)
**  Density: t/mm^3
**  Gravity: mm/s^2
**  Thermal conductivity: t*mm/K/s^3 == as W/m/K == kW/mm/K
**  Specific Heat: mm^2/s^2/K = J/kg/K == kJ/t/K
**
