** written by FreeCAD inp file writer for CalculiX,Abaqus meshes
** highest dimension mesh elements only.

** Nodes
*Node, NSET=Nall
1, 0, 0, 1000
2, 0, 0, 0
3, 0, 1000, 1000
4, 0, 1000, 0
5, 0, 0, 500
6, 0, 500, 1000
7, 0, 1000, 500
8, 0, 500, 0
9, 0, 500, 500
10, 0, 250, 750
11, 0, 250, 250
12, 0, 750, 750
13, 0, 750, 250
14, 32000, 0, 1000
15, 32000, 0, 0
16, 32000, 1000, 1000
17, 32000, 1000, 0
18, 32000, 0, 500
19, 32000, 500, 1000
20, 32000, 1000, 500
** ... 1426 like lines cut


** Volume elements
*Element, TYPE=C3D10, ELSET=Evolumes
657, 687, 305, 1043, 1045, 1050, 1048, 1049, 1052, 1051, 1053
658, 305, 878, 1043, 1045, 1055, 1054, 1048, 1051, 1056, 1053
659, 878, 496, 1043, 1045, 1058, 1057, 1054, 1056, 1059, 1053
660, 496, 687, 1043, 1045, 1060, 1049, 1057, 1059, 1052, 1053
661, 665, 283, 25, 474, 1061, 328, 711, 1063, 1062, 1064
662, 87, 855, 663, 281, 896, 1065, 1066, 331, 1067, 1068
663, 667, 285, 27, 477, 1069, 338, 721, 1071, 1070, 1072
664, 33, 292, 675, 865, 374, 1073, 755, 1075, 1074, 1076
665, 28, 669, 476, 286, 730, 1077, 1078, 349, 1079, 1080
666, 26, 477, 285, 667, 1081, 1070, 339, 720, 1071, 1069
667, 663, 855, 23, 281, 1065, 1082, 705, 1068, 1067, 324
668, 29, 669, 286, 479, 731, 1079, 348, 1084, 1083, 1085
669, 874, 43, 301, 683, 1087, 418, 1086, 1088, 801, 1089
670, 868, 36, 677, 295, 1091, 770, 1090, 1092, 389, 1093
671, 40, 489, 871, 681, 1096, 1094, 1095, 790, 1097, 1098
672, 870, 101, 296, 678, 966, 401, 1099, 1101, 1100, 1102
673, 870, 163, 487, 678, 1104, 584, 1103, 1101, 779, 1105
674, 87, 663, 855, 473, 1066, 1065, 896, 1107, 1106, 1108
675, 160, 483, 675, 865, 565, 1109, 764, 1111, 1110, 1076
676, 283, 856, 474, 87, 1113, 1112, 1062, 332, 902, 1114
** ... 633 like lines cut

** Define element set Eall
*ELSET, ELSET=Eall
Evolumes



***********************************************************
** Element sets for materials and FEM element type (solid, shell, beam, fluid)
*ELSET,ELSET=FemMaterialSolid
Evolumes

***********************************************************
** constraints fixed node sets
** ConstraintFixed
*NSET,NSET=ConstraintFixed
1,
2,
3,
4,
5,
6,
7,
8,
9,
10,
11,
12,
13,

***********************************************************
** Materials
** see information about units at file end
** FreeCAD material name: CalculiX-Steel
** FemMaterial
*MATERIAL, NAME=FemMaterial
*ELASTIC
210000,0.3
*DENSITY
7.9E-09

***********************************************************
** Sections
*SOLID SECTION, ELSET=FemMaterialSolid, MATERIAL=FemMaterial

***********************************************************
** At least one step is needed to run an CalculiX analysis of FreeCAD
*STEP
*STATIC


***********************************************************
** Fixed Constraints
** ConstraintFixed
*BOUNDARY
ConstraintFixed,1
ConstraintFixed,2
ConstraintFixed,3


***********************************************************
** Self weight Constraint
** ConstraintSelfWeight
*DLOAD
Eall,GRAV,9806.65,0,0,-1


***********************************************************
** Outputs --> frd file
*NODE FILE
U
*EL FILE
S, E
** outputs --> dat file
** reaction forces for Constraint fixed
*NODE PRINT, NSET=ConstraintFixed, TOTALS=ONLY
RF

*OUTPUT, FREQUENCY=1
***********************************************************
*END STEP 

***********************************************************
** CalculiX Input file
**   written by    --> FreeCAD 0.19.21963 +19 (Git)
**   written on    --> Tue Jul 14 12:48:52 2020
**   file name     --> 
**   analysis name --> Analysis
**
**
***********************************************************
**  About units:
**  See ccx manual, ccx does not know about any unit.
**  Golden rule: The user must make sure that the numbers they provide have consistent units.
**  The user is the FreeCAD calculix writer module ;-)
**
**  The unit system which is used at Guido Dhondt's company: mm, N, s, K
**  Since Length and Mass are connected by Force, if Length is mm the Mass is in t to get N
**  The following units are used to write to inp file:
**
**  Length: mm (this includes the mesh geometry)
**  Mass: t
**  TimeSpan: s
**  Temperature: K
**
**  This leads to:
**  Force: N
**  Pressure: N/mm^2 == MPa (Young's Modulus has unit Pressure)
**  Density: t/mm^3
**  Gravity: mm/s^2
**  Thermal conductivity: t*mm/K/s^3 == as W/m/K == kW/mm/K
**  Specific Heat: mm^2/s^2/K = J/kg/K == kJ/t/K
**
