** written by FreeCAD inp file writer for CalculiX,Abaqus meshes
** highest dimension mesh elements only.

** Nodes
*Node, NSET=Nall
1, 4, -9.797174393179e-16, 0
2, 4, -9.797174393179e-16, 50
3, 5, -1.224646799147e-15, 0
4, 5, -1.224646799147e-15, 50
5, 4, -9.797174393179e-16, 1.8
6, 4, -9.797174393179e-16, 3.65
7, 4, -9.797174393179e-16, 5.45
8, 4, -9.797174393179e-16, 7.15
9, 4, -9.797174393179e-16, 9
10, 4, -9.797174393179e-16, 10.85
11, 4, -9.797174393179e-16, 12.55
12, 4, -9.797174393179e-16, 14.4
13, 4, -9.797174393179e-16, 16.05
14, 4, -9.797174393179e-16, 17.9
15, 4, -9.797174393179e-16, 19.7
16, 4, -9.797174393179e-16, 21.45
17, 4, -9.797174393179e-16, 23.3
18, 4, -9.797174393179e-16, 25.1
19, 4, -9.797174393179e-16, 26.85
20, 4, -9.797174393179e-16, 28.65
** ... 5802 like lines cut


** Volume elements
*Element, TYPE=C3D10, ELSET=Evolumes
2085, 188, 242, 501, 168, 1521, 3935, 3936, 1337, 1471, 3937
2086, 25, 526, 26, 137, 3938, 3939, 1007, 1165, 3940, 1166
2087, 279, 210, 280, 678, 1603, 1605, 1607, 3942, 3941, 3943
2088, 786, 769, 270, 715, 3280, 3944, 3945, 3279, 3225, 3946
2089, 562, 114, 115, 29, 2575, 1101, 2576, 3948, 3947, 3949
2090, 694, 293, 744, 743, 3950, 3951, 3147, 3145, 3952, 3149
2091, 114, 562, 561, 186, 2575, 2577, 2573, 3954, 3953, 3955
2092, 529, 115, 30, 116, 2483, 3956, 3957, 2482, 1102, 3958
2093, 672, 272, 203, 673, 3959, 1582, 3961, 2933, 3960, 3962
2094, 796, 841, 336, 795, 3459, 3963, 3964, 3405, 3460, 3965
2095, 796, 337, 336, 841, 3966, 1782, 3964, 3459, 3967, 3963
2096, 233, 661, 586, 585, 3968, 2903, 3969, 3970, 2902, 2669
2097, 491, 467, 468, 976, 2294, 2192, 2295, 3972, 3971, 3973
2098, 321, 804, 746, 745, 3974, 3334, 3975, 3976, 3333, 3155
2099, 496, 873, 909, 915, 3977, 3679, 3978, 3979, 3693, 3692
2100, 562, 167, 115, 583, 3980, 3981, 2576, 2660, 3982, 2627
2101, 321, 745, 746, 696, 3976, 3155, 3975, 3983, 3151, 3153
2102, 491, 980, 976, 468, 3984, 3923, 3972, 2295, 3985, 3973
2103, 980, 970, 976, 468, 3918, 3897, 3923, 3985, 3986, 3973
2104, 26, 574, 137, 526, 3987, 3988, 1166, 3939, 2637, 3940
** ... 2849 like lines cut

** Define element set Eall
*ELSET, ELSET=Eall
Evolumes



***********************************************************
** Element sets for materials and FEM element type (solid, shell, beam, fluid)
*ELSET,ELSET=MechanicalMaterialSolid
Evolumes

***********************************************************
** constraints fixed node sets
** ConstraintFixed
*NSET,NSET=ConstraintFixed
2,
4,
45,
46,
47,
48,
49,
50,
51,
52,
53,
54,
55,
56,
57,
74,
75,
76,
77,
78,
** ... 73 like lines cut

***********************************************************
** constraints transform node sets
** ConstraintTransform
*NSET,NSET=CylinConstraintTransform
3,
4,
58,
59,
60,
61,
62,
63,
64,
65,
66,
67,
68,
69,
70,
71,
72,
73,
74,
75,
** ... 2126 like lines cut

***********************************************************
** Materials
** see information about units at file end
** FreeCAD material name: Calculix-Steel
** MechanicalMaterial
*MATERIAL, NAME=MechanicalMaterial
*ELASTIC
210000,0.3

***********************************************************
** Sections
*SOLID SECTION, ELSET=MechanicalMaterialSolid, MATERIAL=MechanicalMaterial

***********************************************************
** Transform Constraints
** ConstraintTransform
*TRANSFORM, NSET=CylinConstraintTransform, TYPE=C
0,0,-35,0,0,-15

***********************************************************
** At least one step is needed to run an CalculiX analysis of FreeCAD
*STEP
*STATIC


***********************************************************
** Fixed Constraints
** ConstraintFixed
*BOUNDARY
ConstraintFixed,1
ConstraintFixed,2
ConstraintFixed,3


***********************************************************
** constraints force node loads
*CLOAD
** ConstraintForce
** node loads on shape: Cut:Face1
3,2,-0
4,2,-0
58,2,-0
59,2,-0
60,2,-0
61,2,-0
62,2,-0
63,2,-0
64,2,-0
65,2,-0
66,2,-0
67,2,-0
68,2,-0
69,2,-0
70,2,-0
71,2,-0
72,2,-0
73,2,-0
74,2,-0
75,2,-0
** ... 2126 like lines cut



***********************************************************
** Outputs --> frd file
*NODE FILE
U
*EL FILE
S, E
** outputs --> dat file
** reaction forces for Constraint fixed
*NODE PRINT, NSET=ConstraintFixed, TOTALS=ONLY
RF

*OUTPUT, FREQUENCY=1
***********************************************************
*END STEP 

***********************************************************
** CalculiX Input file
**   written by    --> FreeCAD 0.21.0
**   written on    --> Tue Mar 28 05:30:48 2023
**   file name     --> constraint_transform_torque.FCStd
**   analysis name --> Analysis
**
**
***********************************************************
**  About units:
**  See ccx manual, ccx does not know about any unit.
**  Golden rule: The user must make sure that the numbers they provide have consistent units.
**  The user is the FreeCAD calculix writer module ;-)
**
**  The unit system which is used at Guido Dhondt's company: mm, N, s, K
**  Since Length and Mass are connected by Force, if Length is mm the Mass is in t to get N
**  The following units are used to write to inp file:
**
**  Length: mm (this includes the mesh geometry)
**  Mass: t
**  TimeSpan: s
**  Temperature: K
**
**  This leads to:
**  Force: N
**  Pressure: N/mm^2 == MPa (Young's Modulus has unit Pressure)
**  Density: t/mm^3
**  Gravity: mm/s^2
**  Thermal conductivity: t*mm/K/s^3 == as W/m/K == kW/mm/K
**  Specific Heat: mm^2/s^2/K = J/kg/K == kJ/t/K
**
