** written by FreeCAD inp file writer for CalculiX,Abaqus meshes
** highest dimension mesh elements only.

** Nodes
*Node, NSET=Nall
1, 47, 4.527490894143e-16, -15
2, 47, 4.527490894143e-16, 15
3, 34.63800439591, 31.76804450181, -15
4, 34.63800439591, 31.76804450181, 15
5, 42.249064127, 40.71941796539, -15
6, 42.249064127, 40.71941796539, 15
7, 67, 1.065814103904e-14, -15
8, 67, 1.065814103904e-14, 15
9, -47, 5.755839955687e-15, -15
10, -47, 5.755839955687e-15, 15
11, -105, 5.3290705169e-15, -15
12, -105, 5.3290705169e-15, 15
13, 47, 4.527490894143e-16, -5
14, 47, 4.527490894143e-16, 5
15, 47, 4.527490894143e-16, -10
16, 47, 4.527490894143e-16, 0
17, 47, 4.527490894143e-16, 10
18, 34.63800439591, 31.76804450181, -5
19, 34.63800439591, 31.76804450181, 5
20, 34.63800439591, 31.76804450181, -10
** ... 2119 like lines cut


** Volume elements
*Element, TYPE=C3D10, ELSET=Evolumes
817, 356, 357, 293, 294, 375, 1366, 1367, 1369, 1368, 355
818, 357, 236, 293, 294, 1371, 1370, 1366, 1368, 1372, 355
819, 300, 293, 236, 294, 351, 1370, 1373, 325, 355, 1372
820, 356, 293, 290, 294, 1367, 353, 1374, 1369, 355, 354
821, 300, 294, 236, 235, 325, 1372, 1373, 1376, 1375, 252
822, 356, 359, 292, 237, 376, 1377, 1378, 1380, 1379, 1381
823, 236, 294, 357, 235, 1372, 1368, 1371, 252, 1375, 1382
824, 294, 235, 300, 383, 1375, 1376, 325, 1384, 1383, 1385
825, 232, 289, 234, 236, 1387, 1386, 271, 274, 1388, 275
826, 236, 293, 356, 357, 1370, 1367, 1389, 1371, 1366, 375
827, 357, 235, 294, 383, 1382, 1375, 1368, 1390, 1383, 1384
828, 236, 292, 356, 293, 1391, 1378, 1389, 1370, 348, 1367
829, 356, 237, 292, 236, 1380, 1381, 1378, 1389, 253, 1391
830, 292, 236, 289, 293, 1391, 1388, 343, 348, 1370, 349
831, 292, 237, 359, 413, 1381, 1379, 1377, 1393, 1392, 1394
832, 236, 300, 289, 293, 1373, 350, 1388, 1370, 351, 349
833, 235, 384, 300, 383, 1396, 1395, 1376, 1383, 399, 1385
834, 231, 384, 300, 235, 1398, 1395, 1397, 257, 1396, 1376
835, 290, 356, 292, 293, 1374, 1378, 352, 353, 1367, 348
836, 300, 236, 231, 235, 1373, 273, 1397, 1376, 252, 257
** ... 1044 like lines cut

** Define element set Eall
*ELSET, ELSET=Eall
Evolumes



***********************************************************
** Element sets for materials and FEM element type (solid, shell, beam, fluid)
*ELSET,ELSET=MaterialSolid
Evolumes

***********************************************************
** constraints fixed node sets
** ConstraintFixed
*NSET,NSET=ConstraintFixed
9,
10,
11,
12,
77,
78,
79,
80,
81,
128,
129,
130,
131,
132,
133,
134,
135,
136,
137,
138,
** ... 95 like lines cut

***********************************************************
** constraints sectionprint surface sets
** ConstraintSectionPrint
*SURFACE, NAME=SECTIONFACEConstraintSectionPrint
895,S1
905,S4
913,S1
915,S1
916,S1
919,S1
939,S4
950,S1
954,S1
966,S1
1470,S1
1581,S3
1612,S1
1647,S1
1776,S1
1777,S1
1779,S1
1784,S1
1786,S1
1809,S1

** Physical constants for SI(mm) unit system with Kelvins
*PHYSICAL CONSTANTS, ABSOLUTE ZERO=0, STEFAN BOLTZMANN=5.670374419e-11

***********************************************************
** Materials
** see information about units at file end
** FreeCAD material name: CalculiX-Steel
** Material
*MATERIAL, NAME=Material
*ELASTIC
210000,0.3
*EXPANSION, ZERO=0
1.2E-05

***********************************************************
** Sections
*SOLID SECTION, ELSET=MaterialSolid, MATERIAL=Material

***********************************************************
** At least one step is needed to run an CalculiX analysis of FreeCAD
*STEP, INC=2000
*STATIC
1.0,1.0,1e-05,1.0

***********************************************************
** Fixed Constraints
** ConstraintFixed
*BOUNDARY
ConstraintFixed,1
ConstraintFixed,2
ConstraintFixed,3


***********************************************************
** SectionPrint Constraints
** ConstraintSectionPrint
*SECTION PRINT, SURFACE=SECTIONFACEConstraintSectionPrint, NAME=SECTIONPRINTConstraintSectionPrint
SOF, SOM, SOAREA

***********************************************************
** constraints pressure element face loads
** ConstraintPressure
*DLOAD
** ArcExtrude.Face4
870,P1,100.0
884,P4,100.0
899,P1,100.0
903,P1,100.0
904,P1,100.0
922,P1,100.0
924,P1,100.0
925,P1,100.0
930,P3,100.0
935,P1,100.0
944,P2,100.0
951,P1,100.0
953,P1,100.0
957,P3,100.0
958,P3,100.0
959,P1,100.0
969,P2,100.0
981,P3,100.0

***********************************************************
** Outputs --> frd file
*NODE FILE
U
*EL FILE
S, E
** outputs --> dat file
** reaction forces for Constraint fixed
*NODE PRINT, NSET=ConstraintFixed, TOTALS=ONLY
RF

*OUTPUT, FREQUENCY=1
***********************************************************
*END STEP

***********************************************************
** CalculiX Input file
**   written by    --> FreeCAD 1.2.0
**   written on    --> Sat Apr 18 11:23:50 2026
**   file name     -->
**   analysis name --> Analysis
**
**
***********************************************************
**  About units:
**  See ccx manual, ccx does not know about any unit.
**  Golden rule: The user must make sure that the numbers they provide have consistent units.
**  The user is the FreeCAD calculix writer module ;-)
**
**  The unit system which is used at Guido Dhondt's company: mm, N, s, K
**  Since Length and Mass are connected by Force, if Length is mm the Mass is in t to get N
**  The following units are used to write to inp file:
**
**  Length: mm (this includes the mesh geometry)
**  Mass: t
**  TimeSpan: s
**  Temperature: K
**
**  This leads to:
**  Force: N
**  Pressure: N/mm^2 == MPa (Young's Modulus has unit Pressure)
**  Density: t/mm^3
**  Gravity: mm/s^2
**  Thermal conductivity: t*mm/K/s^3 == as W/m/K == kW/mm/K
**  Specific Heat: mm^2/s^2/K = J/kg/K == kJ/t/K
**
