** written by FreeCAD inp file writer for CalculiX,Abaqus meshes
** highest dimension mesh elements only.

** Nodes
*Node, NSET=Nall
1, -200, -100, 0
2, -200, -100, 10
3, 200, -100, 0
4, 200, -100, 10
5, 200, 100, 0
6, 200, 100, 10
7, -200, 100, 0
8, -200, 100, 10
9, 50, 0, 0
10, 50, 0, 10
11, -200, -100, 5
12, 200, -100, 5
13, -190, -100, 0
14, -180, -100, 0
15, -170, -100, 0
16, -160, -100, 0
17, -150, -100, 0
18, -140, -100, 0
19, -130, -100, 0
20, -120, -100, 0
** ... 13214 like lines cut


** Volume elements
*Element, TYPE=C3D10, ELSET=Evolumes
4758, 5661, 5549, 1973, 8906, 7768, 8916, 8917, 8919, 8918, 8920
4759, 5515, 2117, 1827, 8908, 8922, 3556, 8921, 8924, 8923, 8925
4760, 5377, 1689, 1861, 8906, 8927, 4765, 8926, 8929, 8928, 8930
4761, 2311, 5999, 1850, 8900, 8932, 8931, 3372, 8934, 8933, 8935
4762, 5515, 5805, 2117, 8908, 7245, 8936, 8922, 8924, 8937, 8923
4763, 1850, 5999, 5538, 8900, 8931, 7061, 8938, 8935, 8933, 8939
4764, 5549, 1861, 1973, 8906, 8940, 4080, 8916, 8918, 8930, 8920
4765, 5595, 1990, 1907, 8902, 8942, 2450, 8941, 8944, 8943, 8945
4766, 5971, 2283, 5574, 8904, 8947, 8946, 7332, 8949, 8948, 8950
4767, 5749, 1852, 5540, 8907, 8952, 8951, 8685, 8954, 8953, 8955
4768, 5377, 1861, 5549, 8906, 8926, 8940, 8454, 8929, 8930, 8918
4769, 974, 6090, 5604, 2402, 8957, 6309, 8956, 8959, 8958, 8960
4770, 6090, 872, 5604, 2402, 8962, 8961, 6309, 8958, 8963, 8960
4771, 1011, 2401, 1917, 6089, 8965, 2747, 8964, 8967, 8966, 8968
4772, 2401, 1213, 1917, 6089, 8970, 8969, 2747, 8966, 8971, 8968
4773, 5574, 2283, 1886, 8904, 8946, 3645, 8972, 8950, 8948, 8973
4774, 6082, 1877, 639, 2394, 8976, 8974, 8975, 8977, 2512, 8978
4775, 6090, 854, 190, 2402, 8980, 879, 8979, 8958, 8981, 2411
4776, 974, 330, 6090, 2402, 1023, 6101, 8957, 8959, 8982, 8958
4777, 330, 972, 6090, 2402, 1015, 8983, 6101, 8982, 8984, 8958
** ... 6504 like lines cut

** Define element set Eall
*ELSET, ELSET=Eall
Evolumes



***********************************************************
** Element sets for materials and FEM element type (solid, shell, beam, fluid)
*ELSET,ELSET=Material_linSolid
Evolumes

***********************************************************
** constraints fixed node sets
** ConstraintFixed
*NSET,NSET=ConstraintFixed
1,
2,
7,
8,
11,
250,
409,
410,
411,
412,
413,
414,
415,
416,
417,
418,
419,
420,
421,
422,
** ... 183 like lines cut

***********************************************************
** Materials
** see information about units at file end
** FreeCAD material name: CalculiX-Steel
** Material_lin
*MATERIAL, NAME=Material_lin
*ELASTIC
210000,0.3
*PLASTIC
240.0, 0.0
270.0, 0.025


***********************************************************
** Sections
*SOLID SECTION, ELSET=Material_linSolid, MATERIAL=Material_lin

***********************************************************
** At least one step is needed to run an CalculiX analysis of FreeCAD
*STEP, NLGEOM
*STATIC


***********************************************************
** Fixed Constraints
** ConstraintFixed
*BOUNDARY
ConstraintFixed,1
ConstraintFixed,2
ConstraintFixed,3


***********************************************************
** constraints pressure element face loads
** ConstraintPressure
*DLOAD
** ConstraintPressure: face load
4796,P3,-130.0
4799,P4,-130.0
4872,P4,-130.0
4875,P1,-130.0
5260,P3,-130.0
5261,P4,-130.0
5286,P3,-130.0
5287,P3,-130.0
5527,P1,-130.0
5528,P3,-130.0
5647,P1,-130.0
5648,P1,-130.0
5886,P1,-130.0
5887,P1,-130.0
5993,P1,-130.0
5994,P1,-130.0
6114,P1,-130.0
6115,P1,-130.0
6591,P3,-130.0
6592,P3,-130.0
** ... 60 like lines cut

***********************************************************
** Outputs --> frd file
*NODE FILE
U
*EL FILE
S, E, PEEQ
** outputs --> dat file
** reaction forces for Constraint fixed
*NODE PRINT, NSET=ConstraintFixed, TOTALS=ONLY
RF


***********************************************************
*END STEP 

***********************************************************
** CalculiX Input file
**   written by    --> FreeCAD 0.21.0
**   written on    --> Tue Mar 28 07:12:17 2023
**   file name     --> 
**   analysis name --> Analysis
**
**
***********************************************************
**  About units:
**  See ccx manual, ccx does not know about any unit.
**  Golden rule: The user must make sure that the numbers they provide have consistent units.
**  The user is the FreeCAD calculix writer module ;-)
**
**  The unit system which is used at Guido Dhondt's company: mm, N, s, K
**  Since Length and Mass are connected by Force, if Length is mm the Mass is in t to get N
**  The following units are used to write to inp file:
**
**  Length: mm (this includes the mesh geometry)
**  Mass: t
**  TimeSpan: s
**  Temperature: K
**
**  This leads to:
**  Force: N
**  Pressure: N/mm^2 == MPa (Young's Modulus has unit Pressure)
**  Density: t/mm^3
**  Gravity: mm/s^2
**  Thermal conductivity: t*mm/K/s^3 == as W/m/K == kW/mm/K
**  Specific Heat: mm^2/s^2/K = J/kg/K == kJ/t/K
**
