** written by FreeCAD inp file writer for CalculiX,Abaqus meshes
** highest dimension mesh elements only.

** Nodes
*Node, NSET=Nall
1, 100, 10, 0
2, 100, 0, 0
3, 80, 10, 0
4, 80, 0, 0
5, 60, 10, 0
6, 60, 0, 0
7, 40, 10, 0
8, 40, 0, 0
9, 20, 10, 0
10, 20, 0, 0
11, 0, 10, 0
12, 0, 0, 0
13, 80, 2, 0
14, 80, 4, 0
15, 80, 6, 0
16, 80, 8, 0
17, 82, 0, 0
18, 84, 0, 0
19, 86, 0, 0
20, 88, 0, 0
** ... 1271 like lines cut


** Face elements
*Element, TYPE=S6, ELSET=Efaces
131, 13, 4, 17, 352, 357, 482
132, 14, 13, 127, 353, 483, 484
133, 15, 14, 128, 354, 485, 486
134, 14, 127, 128, 484, 487, 485
135, 16, 15, 129, 355, 488, 489
136, 15, 128, 129, 486, 490, 488
137, 3, 16, 130, 356, 491, 492
138, 26, 3, 130, 367, 492, 493
139, 16, 129, 130, 489, 494, 491
140, 17, 18, 131, 358, 495, 496
141, 19, 20, 132, 360, 497, 498
142, 21, 22, 133, 362, 499, 500
143, 23, 24, 134, 364, 501, 502
144, 25, 2, 35, 366, 377, 503
145, 27, 26, 135, 368, 504, 505
146, 26, 130, 135, 493, 506, 504
147, 28, 27, 136, 369, 507, 508
148, 27, 135, 136, 505, 509, 507
149, 29, 28, 137, 370, 510, 511
150, 28, 136, 137, 508, 512, 510
** ... 570 like lines cut

** Define element set Eall
*ELSET, ELSET=Eall
Efaces



***********************************************************
** Element sets for materials and FEM element type (solid, shell, beam, fluid)
*ELSET,ELSET=FemMaterial1ShellThickness
367,
368,
369,
370,
371,
372,
373,
374,
375,
376,
377,
378,
379,
380,
381,
382,
383,
384,
385,
386,
** ... 98 like lines cut
*ELSET,ELSET=FemMaterial2ShellThickness
485,
486,
487,
488,
489,
490,
491,
492,
493,
494,
495,
496,
497,
498,
499,
500,
501,
502,
503,
504,
** ... 216 like lines cut
*ELSET,ELSET=FemMaterial3ShellThickness
131,
132,
133,
134,
135,
136,
137,
138,
139,
140,
141,
142,
143,
144,
145,
146,
147,
148,
149,
150,
** ... 216 like lines cut

***********************************************************
** constraints fixed node sets
** ConstraintFixed
*NSET,NSET=ConstraintFixed
1,
2,
11,
12,
35,
36,
37,
38,
105,
106,
107,
108,
377,
378,
379,
380,
381,
457,
458,
459,
460,
461,

***********************************************************
** Materials
** see information about units at file end
** FreeCAD material name: Concrete-Generic
** FemMaterial1
*MATERIAL, NAME=FemMaterial1
*ELASTIC
32000,0.17
** FreeCAD material name: PLA
** FemMaterial2
*MATERIAL, NAME=FemMaterial2
*ELASTIC
3640,0.36
** FreeCAD material name: Steel-Generic
** FemMaterial3
*MATERIAL, NAME=FemMaterial3
*ELASTIC
200000,0.3

***********************************************************
** Sections
*SHELL SECTION, ELSET=FemMaterial1ShellThickness, MATERIAL=FemMaterial1
10
*SHELL SECTION, ELSET=FemMaterial2ShellThickness, MATERIAL=FemMaterial2
10
*SHELL SECTION, ELSET=FemMaterial3ShellThickness, MATERIAL=FemMaterial3
10

***********************************************************
** At least one step is needed to run an CalculiX analysis of FreeCAD
*STEP
*STATIC


***********************************************************
** Fixed Constraints
** ConstraintFixed
*BOUNDARY
ConstraintFixed,1
ConstraintFixed,2
ConstraintFixed,3
ConstraintFixed,4
ConstraintFixed,5
ConstraintFixed,6


***********************************************************
** constraints force node loads
*CLOAD
** ConstraintForce
** node loads on shape: Face1:Edge4
9,2,-33.33333333333333
11,2,-33.33333333333333
118,2,-66.66666666666666
119,2,-66.66666666666666
120,2,-66.66666666666666
121,2,-66.66666666666666
122,2,-66.66666666666666
123,2,-66.66666666666666
124,2,-66.66666666666666
125,2,-66.66666666666666
126,2,-66.66666666666666
472,2,-133.33333333333331
473,2,-133.33333333333331
474,2,-133.33333333333331
475,2,-133.33333333333331
476,2,-133.33333333333331
477,2,-133.33333333333331
478,2,-133.33333333333331
479,2,-133.33333333333331
480,2,-133.33333333333331
481,2,-133.33333333333331

** node loads on shape: Face2:Edge4
7,2,-33.33333333333333
9,2,-33.33333333333333
96,2,-66.66666666666666
97,2,-66.66666666666666
98,2,-66.66666666666666
99,2,-66.66666666666666
100,2,-66.66666666666666
101,2,-66.66666666666666
102,2,-66.66666666666666
103,2,-66.66666666666666
104,2,-66.66666666666666
447,2,-133.33333333333331
448,2,-133.33333333333331
449,2,-133.33333333333331
450,2,-133.33333333333331
451,2,-133.33333333333331
452,2,-133.33333333333331
453,2,-133.33333333333331
454,2,-133.33333333333331
455,2,-133.33333333333331
456,2,-133.33333333333331

** node loads on shape: Face3:Edge4
5,2,-33.33333333333333
7,2,-33.33333333333333
74,2,-66.66666666666666
75,2,-66.66666666666666
76,2,-66.66666666666666
77,2,-66.66666666666666
78,2,-66.66666666666666
79,2,-66.66666666666666
80,2,-66.66666666666666
81,2,-66.66666666666666
82,2,-66.66666666666666
422,2,-133.33333333333331
423,2,-133.33333333333331
424,2,-133.33333333333331
425,2,-133.33333333333331
426,2,-133.33333333333331
427,2,-133.33333333333331
428,2,-133.33333333333331
429,2,-133.33333333333331
430,2,-133.33333333333331
431,2,-133.33333333333331

** node loads on shape: Face4:Edge4
3,2,-33.33333333333333
5,2,-33.33333333333333
52,2,-66.66666666666666
53,2,-66.66666666666666
54,2,-66.66666666666666
55,2,-66.66666666666666
56,2,-66.66666666666666
57,2,-66.66666666666666
58,2,-66.66666666666666
59,2,-66.66666666666666
60,2,-66.66666666666666
397,2,-133.33333333333331
398,2,-133.33333333333331
399,2,-133.33333333333331
400,2,-133.33333333333331
401,2,-133.33333333333331
402,2,-133.33333333333331
403,2,-133.33333333333331
404,2,-133.33333333333331
405,2,-133.33333333333331
406,2,-133.33333333333331

** node loads on shape: Face5:Edge4
1,2,-33.33333333333333
3,2,-33.33333333333333
26,2,-66.66666666666666
27,2,-66.66666666666666
28,2,-66.66666666666666
29,2,-66.66666666666666
30,2,-66.66666666666666
31,2,-66.66666666666666
32,2,-66.66666666666666
33,2,-66.66666666666666
34,2,-66.66666666666666
367,2,-133.33333333333331
368,2,-133.33333333333331
369,2,-133.33333333333331
370,2,-133.33333333333331
371,2,-133.33333333333331
372,2,-133.33333333333331
373,2,-133.33333333333331
374,2,-133.33333333333331
375,2,-133.33333333333331
376,2,-133.33333333333331



***********************************************************
** Outputs --> frd file
*NODE FILE, OUTPUT=2d
U
*EL FILE
S, E
** outputs --> dat file
** reaction forces for Constraint fixed
*NODE PRINT, NSET=ConstraintFixed, TOTALS=ONLY
RF


***********************************************************
*END STEP 

***********************************************************
** CalculiX Input file
**   written by    --> FreeCAD 0.21.0
**   written on    --> Tue Mar 28 05:33:12 2023
**   file name     --> 
**   analysis name --> Analysis
**
**
***********************************************************
**  About units:
**  See ccx manual, ccx does not know about any unit.
**  Golden rule: The user must make sure that the numbers they provide have consistent units.
**  The user is the FreeCAD calculix writer module ;-)
**
**  The unit system which is used at Guido Dhondt's company: mm, N, s, K
**  Since Length and Mass are connected by Force, if Length is mm the Mass is in t to get N
**  The following units are used to write to inp file:
**
**  Length: mm (this includes the mesh geometry)
**  Mass: t
**  TimeSpan: s
**  Temperature: K
**
**  This leads to:
**  Force: N
**  Pressure: N/mm^2 == MPa (Young's Modulus has unit Pressure)
**  Density: t/mm^3
**  Gravity: mm/s^2
**  Thermal conductivity: t*mm/K/s^3 == as W/m/K == kW/mm/K
**  Specific Heat: mm^2/s^2/K = J/kg/K == kJ/t/K
**
