** written by FreeCAD inp file writer for CalculiX,Abaqus meshes
** highest dimension mesh elements only.

** Nodes
*Node, NSET=Nall
1, 40, 0, 0
2, 40, 0, 10
3, 40, 10, 0
4, 40, 10, 10
5, 60, 0, 0
6, 60, 0, 10
7, 60, 10, 0
8, 60, 10, 10
9, 80, 0, 0
10, 80, 0, 10
11, 80, 10, 0
12, 80, 10, 10
13, 100, 0, 0
14, 100, 0, 10
15, 100, 10, 0
16, 100, 10, 10
17, 0, 0, 10
18, 0, 0, 0
19, 0, 10, 10
20, 0, 10, 0
** ... 12610 like lines cut


** Volume elements
*Element, TYPE=C3D10, ELSET=Evolumes
819, 786, 1282, 751, 6254, 6319, 6318, 967, 6321, 6320, 6322
820, 1270, 1766, 1302, 6254, 6324, 6323, 1386, 6326, 6325, 6327
821, 643, 632, 785, 6257, 668, 6328, 6329, 6331, 6330, 6332
822, 1256, 6242, 6262, 6307, 6335, 6333, 6334, 6337, 6336, 6338
823, 6242, 1256, 6262, 6299, 6335, 6334, 6333, 6340, 6339, 6341
824, 645, 634, 6255, 6259, 705, 6342, 6343, 6345, 6344, 6346
825, 6242, 1256, 6299, 6307, 6335, 6339, 6340, 6336, 6337, 6347
826, 1036, 6252, 6266, 6314, 6350, 6348, 6349, 6352, 6351, 6353
827, 634, 645, 6255, 6303, 705, 6343, 6342, 6355, 6354, 6356
828, 6274, 6248, 6242, 6302, 6359, 6357, 6358, 6361, 6360, 6362
829, 6261, 6249, 6239, 6290, 6365, 6363, 6364, 6367, 6366, 6368
830, 6242, 6248, 6264, 6302, 6357, 6369, 6370, 6362, 6360, 6371
831, 6239, 6251, 6261, 6290, 6373, 6372, 6364, 6368, 6374, 6367
832, 1761, 6251, 6261, 6282, 6376, 6372, 6375, 6378, 6377, 6379
833, 6246, 1547, 1502, 6293, 6381, 1710, 6380, 6383, 6382, 6384
834, 6274, 6241, 6248, 6302, 6386, 6385, 6359, 6361, 6387, 6360
835, 6254, 1753, 6256, 6306, 6390, 6388, 6389, 6392, 6391, 6393
836, 1502, 1547, 6246, 6301, 1710, 6381, 6380, 6395, 6394, 6396
837, 6252, 798, 753, 6278, 6398, 969, 6397, 6400, 6399, 6401
838, 6248, 6241, 6264, 6302, 6385, 6402, 6369, 6360, 6387, 6371
** ... 7295 like lines cut

** Define element set Eall
*ELSET, ELSET=Eall
Evolumes



***********************************************************
** Element sets for materials and FEM element type (solid, shell, beam, fluid)
*ELSET,ELSET=FemMaterial1Solid
819,
820,
821,
822,
823,
824,
825,
826,
827,
828,
829,
830,
831,
832,
833,
834,
835,
836,
837,
838,
** ... 1446 like lines cut
*ELSET,ELSET=FemMaterial2Solid
6676,
6677,
6678,
6679,
6680,
6681,
6682,
6683,
6684,
6685,
6686,
6687,
6688,
6689,
6690,
6691,
6692,
6693,
6694,
6695,
** ... 2910 like lines cut
*ELSET,ELSET=FemMaterial3Solid
2285,
2286,
2287,
2288,
2289,
2290,
2291,
2292,
2293,
2294,
2295,
2296,
2297,
2298,
2299,
2300,
2301,
2302,
2303,
2304,
** ... 2899 like lines cut

***********************************************************
** constraints fixed node sets
** ConstraintFixed
*NSET,NSET=ConstraintFixed
13,
14,
15,
16,
17,
18,
19,
20,
228,
229,
230,
231,
232,
233,
234,
235,
236,
275,
276,
277,
** ... 302 like lines cut

***********************************************************
** Materials
** see information about units at file end
** FreeCAD material name: Concrete-Generic
** FemMaterial1
*MATERIAL, NAME=FemMaterial1
*ELASTIC
32000,0.17
** FreeCAD material name: PLA
** FemMaterial2
*MATERIAL, NAME=FemMaterial2
*ELASTIC
3640,0.36
** FreeCAD material name: Steel-Generic
** FemMaterial3
*MATERIAL, NAME=FemMaterial3
*ELASTIC
200000,0.3

***********************************************************
** Sections
*SOLID SECTION, ELSET=FemMaterial1Solid, MATERIAL=FemMaterial1
*SOLID SECTION, ELSET=FemMaterial2Solid, MATERIAL=FemMaterial2
*SOLID SECTION, ELSET=FemMaterial3Solid, MATERIAL=FemMaterial3

***********************************************************
** At least one step is needed to run an CalculiX analysis of FreeCAD
*STEP
*STATIC


***********************************************************
** Fixed Constraints
** ConstraintFixed
*BOUNDARY
ConstraintFixed,1
ConstraintFixed,2
ConstraintFixed,3


***********************************************************
** constraints force node loads
*CLOAD
** ConstraintForce
** node loads on shape: Box1:Face6
17,3,-0.0
19,3,-0.0
22,3,-0.0
23,3,-0.0
406,3,-0.0
407,3,-0.0
408,3,-0.0
409,3,-0.0
410,3,-5.569444444448354
411,3,-4.448173740406444
412,3,-6.692809797200002
413,3,-4.2684508864278445
414,3,-5.56944444445502
461,3,-0.0
462,3,-0.0
463,3,-0.0
464,3,-0.0
465,3,-0.0
466,3,-0.0
467,3,-0.0
** ... 295 like lines cut

** node loads on shape: Box2:Face6
2,3,-0.0
4,3,-0.0
22,3,-0.0
23,3,-0.0
43,3,-0.0
44,3,-0.0
45,3,-0.0
46,3,-0.0
47,3,-5.5694444446420155
48,3,-4.3711646419271615
49,3,-6.703045430740325
50,3,-4.255370802063468
51,3,-5.569444444500001
499,3,-0.0
500,3,-0.0
501,3,-0.0
502,3,-0.0
503,3,-5.56944444450835
504,3,-4.371164641906154
505,3,-6.703045430740309
** ... 279 like lines cut

** node loads on shape: Box3:Face6
2,3,-0.0
4,3,-0.0
6,3,-0.0
8,3,-0.0
43,3,-0.0
44,3,-0.0
45,3,-0.0
46,3,-0.0
47,3,-5.5694444446420155
48,3,-4.3711646419271615
49,3,-6.703045430740325
50,3,-4.255370802063468
51,3,-5.569444444500001
89,3,-0.0
90,3,-0.0
91,3,-0.0
92,3,-0.0
93,3,-0.0
94,3,-0.0
95,3,-0.0
** ... 279 like lines cut

** node loads on shape: Box4:Face6
6,3,-0.0
8,3,-0.0
10,3,-0.0
12,3,-0.0
155,3,-0.0
156,3,-0.0
157,3,-0.0
158,3,-0.0
159,3,-3.614848889166662
160,3,-4.956060414833335
161,3,-6.508969907333344
162,3,-5.536850579333322
163,3,-6.138304924168802
191,3,-0.0
192,3,-0.0
193,3,-0.0
194,3,-0.0
195,3,-3.6443097420828496
196,3,-4.956060414704831
197,3,-6.508969907333344
** ... 275 like lines cut

** node loads on shape: Box5:Face6
10,3,-0.0
12,3,-0.0
14,3,-0.0
16,3,-0.0
191,3,-0.0
192,3,-0.0
193,3,-0.0
194,3,-0.0
195,3,-3.9949845133412945
196,3,-4.956060414704831
197,3,-6.508969907333344
198,3,-5.536850579333344
199,3,-6.138304924166676
237,3,-0.0
238,3,-0.0
239,3,-0.0
240,3,-0.0
241,3,-0.0
242,3,-0.0
243,3,-0.0
** ... 283 like lines cut



***********************************************************
** Outputs --> frd file
*NODE FILE
U
*EL FILE
S, E
** outputs --> dat file
** reaction forces for Constraint fixed
*NODE PRINT, NSET=ConstraintFixed, TOTALS=ONLY
RF


***********************************************************
*END STEP 

***********************************************************
** CalculiX Input file
**   written by    --> FreeCAD 0.21.0
**   written on    --> Tue Mar 28 05:32:06 2023
**   file name     --> 
**   analysis name --> Analysis
**
**
***********************************************************
**  About units:
**  See ccx manual, ccx does not know about any unit.
**  Golden rule: The user must make sure that the numbers they provide have consistent units.
**  The user is the FreeCAD calculix writer module ;-)
**
**  The unit system which is used at Guido Dhondt's company: mm, N, s, K
**  Since Length and Mass are connected by Force, if Length is mm the Mass is in t to get N
**  The following units are used to write to inp file:
**
**  Length: mm (this includes the mesh geometry)
**  Mass: t
**  TimeSpan: s
**  Temperature: K
**
**  This leads to:
**  Force: N
**  Pressure: N/mm^2 == MPa (Young's Modulus has unit Pressure)
**  Density: t/mm^3
**  Gravity: mm/s^2
**  Thermal conductivity: t*mm/K/s^3 == as W/m/K == kW/mm/K
**  Specific Heat: mm^2/s^2/K = J/kg/K == kJ/t/K
**
