$pyNastran: version=msc
$pyNastran: punch=False
$pyNastran: encoding=utf-8
$pyNastran: nnodes=55
$pyNastran: nelements=54
$EXECUTIVE CONTROL DECK
SOL 101
CEND
$CASE CONTROL DECK
ECHO = NONE
TITLE = pyNastran for generating solverinput for for Mystran
SUBCASE 1
    DISPLACEMENT(SORT1,REAL) = ALL
    LOAD = 1
    SPC = 1
    SPCFORCES(SORT1,REAL) = ALL
    STRESS(SORT1,REAL,VONMISES,BILIN) = ALL
    SUBTITLE = Default
BEGIN BULK
$PARAMS
PARAM       POST      -1
$NODES
GRID           1              0.    500.    500.
GRID           2           8000.    500.    500.
GRID           3        148.1481    500.    500.
GRID           4        296.2963    500.    500.
GRID           5        444.4444    500.    500.
GRID           6        592.5926    500.    500.
GRID           7        740.7407    500.    500.
GRID           8        888.8889    500.    500.
GRID           9        1037.037    500.    500.
GRID          10        1185.185    500.    500.
GRID          11        1333.333    500.    500.
GRID          12        1481.481    500.    500.
GRID          13         1629.63    500.    500.
GRID          14        1777.778    500.    500.
GRID          15        1925.926    500.    500.
GRID          16        2074.074    500.    500.
GRID          17        2222.222    500.    500.
GRID          18         2370.37    500.    500.
GRID          19        2518.519    500.    500.
GRID          20        2666.667    500.    500.
$ ... 35 like lines cut
$ELEMENTS
CBAR           1       1       1       3      0.      0.      1.
CBAR           2       1       3       4      0.      0.      1.
CBAR           3       1       4       5      0.      0.      1.
CBAR           4       1       5       6      0.      0.      1.
CBAR           5       1       6       7      0.      0.      1.
CBAR           6       1       7       8      0.      0.      1.
CBAR           7       1       8       9      0.      0.      1.
CBAR           8       1       9      10      0.      0.      1.
CBAR           9       1      10      11      0.      0.      1.
CBAR          10       1      11      12      0.      0.      1.
CBAR          11       1      12      13      0.      0.      1.
CBAR          12       1      13      14      0.      0.      1.
CBAR          13       1      14      15      0.      0.      1.
CBAR          14       1      15      16      0.      0.      1.
CBAR          15       1      16      17      0.      0.      1.
CBAR          16       1      17      18      0.      0.      1.
CBAR          17       1      18      19      0.      0.      1.
CBAR          18       1      19      20      0.      0.      1.
CBAR          19       1      20      21      0.      0.      1.
CBAR          20       1      21      22      0.      0.      1.
$ ... 34 like lines cut
$PROPERTIES
PBARL          1       1             BAR
           1000.   1000.      0.
$MATERIALS
MAT1           1 210000.              .3
$LOADS
LOAD           1      1.      1.       2
FORCE          2       2        9000000.      0.      0.     -1.
$SPCs
SPCADD         1       2
SPC1           2  123456       1
ENDDATA
