$pyNastran: version=msc
$pyNastran: punch=False
$pyNastran: encoding=utf-8
$pyNastran: nnodes=546
$pyNastran: nelements=968
$EXECUTIVE CONTROL DECK
SOL 101
CEND
$CASE CONTROL DECK
ECHO = NONE
TITLE = pyNastran for generating solverinput for for Mystran
SUBCASE 1
    DISPLACEMENT(SORT1,REAL) = ALL
    LOAD = 1
    SPC = 1
    SPCFORCES(SORT1,REAL) = ALL
    STRESS(SORT1,REAL,VONMISES,BILIN) = ALL
    SUBTITLE = Default
BEGIN BULK
$PARAMS
PARAM       POST      -1
$NODES
GRID           1              0.    500.      0.
GRID           2              0.    500.   1000.
GRID           3           8000.    500.      0.
GRID           4           8000.    500.   1000.
GRID           5              0.    500.142.8571
GRID           6              0.    500.285.7143
GRID           7              0.    500.428.5714
GRID           8              0.    500.571.4286
GRID           9              0.    500.714.2857
GRID          10              0.    500.857.1429
GRID          11        148.1481    500.      0.
GRID          12        296.2963    500.      0.
GRID          13        444.4444    500.      0.
GRID          14        592.5926    500.      0.
GRID          15        740.7407    500.      0.
GRID          16        888.8889    500.      0.
GRID          17        1037.037    500.      0.
GRID          18        1185.185    500.      0.
GRID          19        1333.333    500.      0.
GRID          20        1481.481    500.      0.
$ ... 526 like lines cut
$ELEMENTS
CTRIA3       123       1     220     445     409
CTRIA3       124       1     408     447     217
CTRIA3       125       1     128     285     210
CTRIA3       126       1     211     286     125
CTRIA3       127       1     209     284     126
CTRIA3       128       1     132     283     212
CTRIA3       129       1     206     340     167
CTRIA3       130       1     166     345     207
CTRIA3       131       1     220     409     323
CTRIA3       132       1     324     408     217
CTRIA3       133       1     345     416     207
CTRIA3       134       1     135     416     345
CTRIA3       135       1     206     403     340
CTRIA3       136       1     155     278     221
CTRIA3       137       1     221     278     134
CTRIA3       138       1     134     279     221
CTRIA3       139       1     221     279     156
CTRIA3       140       1     340     403     137
CTRIA3       141       1     149     315     222
CTRIA3       142       1     240     278     155
$ ... 948 like lines cut
$PROPERTIES
PSHELL         1       1   1000.       1               1
$MATERIALS
MAT1           1 210000.              .3
$LOADS
LOAD           1      1.      1.       2
FORCE          2       3        642857.1      0.-2.22-16     -1.
FORCE          2       4        642857.1      0.-2.22-16     -1.
FORCE          2      64        1285714.      0.-2.22-16     -1.
FORCE          2      65        1285714.      0.-2.22-16     -1.
FORCE          2      66        1285714.      0.-2.22-16     -1.
FORCE          2      67        1285714.      0.-2.22-16     -1.
FORCE          2      68        1285714.      0.-2.22-16     -1.
FORCE          2      69        1285714.      0.-2.22-16     -1.
$SPCs
SPCADD         1       2
SPC1           2  123456       1       2       5       6       7       8
               9      10
ENDDATA
