$pyNastran: version=msc
$pyNastran: punch=False
$pyNastran: encoding=utf-8
$pyNastran: nnodes=27
$pyNastran: nelements=16
$EXECUTIVE CONTROL DECK
SOL 101
CEND
$CASE CONTROL DECK
ECHO = NONE
TITLE = pyNastran for generating solverinput for for Mystran
SUBCASE 1
    DISPLACEMENT(SORT1,REAL) = ALL
    LOAD = 1
    SPC = 1
    SPCFORCES(SORT1,REAL) = ALL
    STRESS(SORT1,REAL,VONMISES,BILIN) = ALL
    SUBTITLE = Default
BEGIN BULK
$PARAMS
PARAM       POST      -1
$NODES
GRID           1              0.    500.      0.
GRID           2              0.    500.   1000.
GRID           3           8000.    500.      0.
GRID           4           8000.    500.   1000.
GRID           5              0.    500.    500.
GRID           6           2000.    500.      0.
GRID           7           4000.    500.      0.
GRID           8           6000.    500.      0.
GRID           9           1000.    500.      0.
GRID          10           7000.    500.      0.
GRID          11           3000.    500.      0.
GRID          12           5000.    500.      0.
GRID          13           8000.    500.    500.
GRID          14           2000.    500.   1000.
GRID          15           4000.    500.   1000.
GRID          16           6000.    500.   1000.
GRID          17           1000.    500.   1000.
GRID          18           7000.    500.   1000.
GRID          19           3000.    500.   1000.
GRID          20           5000.    500.   1000.
$ ... 7 like lines cut
$ELEMENTS
CQUAD4        21       1      14      17      22      21
CQUAD4        22       1       6      21      22       9
CQUAD4        23       1       1       9      22       5
CQUAD4        24       1       2       5      22      17
CQUAD4        25       1       4      18      24      13
CQUAD4        26       1       3      13      24      10
CQUAD4        27       1       8      10      24      23
CQUAD4        28       1      16      23      24      18
CQUAD4        29       1       7      25      26      11
CQUAD4        30       1       6      11      26      21
CQUAD4        31       1      14      21      26      19
CQUAD4        32       1      15      19      26      25
CQUAD4        33       1      16      20      27      23
CQUAD4        34       1       8      23      27      12
CQUAD4        35       1       7      12      27      25
CQUAD4        36       1      15      25      27      20
$PROPERTIES
PSHELL         1       1   1000.       1               1
$MATERIALS
MAT1           1 210000.              .3
$LOADS
LOAD           1      1.      1.       2
FORCE          2       3        2250000.      0.-2.22-16     -1.
FORCE          2       4        2250000.      0.-2.22-16     -1.
FORCE          2      13        4500000.      0.-2.22-16     -1.
$SPCs
SPCADD         1       2
SPC1           2  123456       1       2       5
ENDDATA
