$pyNastran: version=msc
$pyNastran: punch=False
$pyNastran: encoding=utf-8
$pyNastran: nnodes=228
$pyNastran: nelements=79
$EXECUTIVE CONTROL DECK
SOL 101
CEND
$CASE CONTROL DECK
ECHO = NONE
TITLE = pyNastran for generating solverinput for for Mystran
SUBCASE 1
    DISPLACEMENT(SORT1,REAL) = ALL
    LOAD = 1
    SPC = 1
    SPCFORCES(SORT1,REAL) = ALL
    STRESS(SORT1,REAL,VONMISES,BILIN) = ALL
    SUBTITLE = Default
BEGIN BULK
$PARAMS
PARAM       POST      -1
$NODES
GRID           1           8000.   1000.      0.
GRID           2           8000.   1000.   1000.
GRID           3           8000.      0.      0.
GRID           4           8000.      0.   1000.
GRID           5              0.   1000.      0.
GRID           6              0.   1000.   1000.
GRID           7              0.      0.      0.
GRID           8              0.      0.   1000.
GRID           9            728.   1000.   1000.
GRID          10           1456.   1000.   1000.
GRID          11           2184.   1000.   1000.
GRID          12           2912.   1000.   1000.
GRID          13           3640.   1000.   1000.
GRID          14           4368.   1000.   1000.
GRID          15           5096.   1000.   1000.
GRID          16           5824.   1000.   1000.
GRID          17           6552.   1000.   1000.
GRID          18           7280.   1000.   1000.
GRID          19            728.      0.   1000.
GRID          20           1456.      0.   1000.
$ ... 208 like lines cut
$ELEMENTS
CTETRA       149       1      40      10      19      20     196     106
             168     171     107      66
CTETRA       150       1      10      30      31      40     149      79
             150     196     129     128
CTETRA       151       1      38      18      17      47     166      62
             163     140     198     197
CTETRA       152       1      32      11      41      12     152     199
             130     165      56     200
CTETRA       153       1      12      41      32      42     200     130
             165     201      92     143
CTETRA       154       1      42      12      21      22     201     110
             172     185     123      68
CTETRA       155       1      10      40      31      11     196     128
             150      55     202     151
CTETRA       156       1      11      41      12      21     199     200
              56     109     173     110
CTETRA       157       1      20      11      41      40     108     199
             170     171     202      91
CTETRA       158       1      20      21      41      11      67     173
             170     108     109     199
CTETRA       159       1      32      41      11      31     130     199
             152      80     131     151
CTETRA       160       1      11      20      10      40     108     107
              55     202     171     196
CTETRA       161       1      38      47      17      37     140     197
             163      86     141     162
CTETRA       162       1      38      49      18      48     203     204
             166     145     206     205
CTETRA       163       1      46      45      15      36      96     208
             207     139     137     159
CTETRA       164       1      47      46      16      37      97     210
             209     141     138     161
CTETRA       165       1      18       2       4      49      63      64
             122     204     190     189
CTETRA       166       1      18      27      17      47     121     120
              62     198     183     197
CTETRA       167       1      38      48      18      47     145     205
             166     140      98     198
CTETRA       168       1      12      42      23      22     201     175
             111     123     185      69
$ ... 118 like lines cut
$PROPERTIES
PSOLID         1       1
$MATERIALS
MAT1           1 210000.              .3
$LOADS
LOAD           1      1.      1.       2
FORCE          2       1              0.      0.      0.     -1.
FORCE          2       2              0.      0.      0.     -1.
FORCE          2       3              0.      0.      0.     -1.
FORCE          2       4              0.      0.      0.     -1.
FORCE          2      49              0.      0.      0.     -1.
FORCE          2      64         750000.      0.      0.     -1.
FORCE          2      88         750000.      0.      0.     -1.
FORCE          2     100         750000.      0.      0.     -1.
FORCE          2     102         750000.      0.      0.     -1.
FORCE          2     188        1500000.      0.      0.     -1.
FORCE          2     189        1500000.      0.      0.     -1.
FORCE          2     190        1500000.      0.      0.     -1.
FORCE          2     191        1500000.      0.      0.     -1.
$SPCs
SPCADD         1       2
SPC1           2  123456       5       6       7       8      50      52
              76     101     103     192     193     194     195
ENDDATA
