*Node, NSET=Nall
1, 0, 0, 0
2, 0, 0, 10
3, 0, 10, 0
4, 0, 10, 10
5, 10, 0, 0
6, 10, 0, 10
7, 10, 10, 0
8, 10, 10, 10
9, 0, 0, 5
10, 0, 0, 2.5
11, 0, 0, 7.5
12, 0, 5, 0
13, 0, 2.5, 0
14, 0, 7.5, 0
15, 0, 10, 5
16, 0, 10, 2.5
17, 0, 10, 7.5
18, 0, 5, 10
19, 0, 2.5, 10
20, 0, 7.5, 10
** ... 247 like lines cut
*Element, TYPE=C3D10, ELSET=Eall
1, 97, 174, 99, 95, 197, 196, 108, 112, 198, 114, 
2, 123, 120, 73, 74, 130, 200, 199, 201, 202, 76, 
3, 123, 122, 120, 74, 142, 143, 130, 201, 203, 202, 
4, 121, 147, 146, 145, 205, 159, 204, 206, 155, 158, 
5, 98, 95, 99, 46, 118, 114, 103, 207, 208, 209, 
6, 124, 172, 123, 120, 211, 210, 127, 131, 212, 130, 
7, 72, 95, 97, 96, 214, 112, 213, 215, 110, 111, 
8, 98, 95, 148, 96, 118, 217, 216, 119, 110, 218, 
9, 145, 149, 148, 96, 157, 165, 166, 219, 220, 218, 
10, 99, 36, 173, 174, 107, 175, 221, 196, 176, 177, 
11, 148, 149, 33, 96, 165, 168, 167, 218, 220, 117, 
12, 97, 36, 99, 174, 105, 107, 108, 197, 176, 196, 
13, 172, 42, 171, 124, 185, 186, 187, 211, 125, 222, 
14, 98, 46, 99, 9, 207, 209, 103, 101, 50, 102, 
15, 124, 42, 123, 172, 125, 126, 127, 211, 185, 210, 
16, 48, 12, 46, 148, 55, 56, 57, 223, 150, 224, 
17, 146, 147, 121, 39, 159, 205, 204, 162, 161, 138, 
18, 122, 39, 121, 147, 136, 138, 139, 225, 161, 205, 
19, 123, 27, 122, 74, 144, 141, 142, 201, 78, 203, 
20, 73, 27, 123, 74, 79, 144, 199, 76, 78, 201, 
** ... 98 like lines cut



***********************************************************
** Element sets for materials
** written by write_material_element_sets function
*ELSET,ELSET=MaterialSolidElements
Eall

***********************************************************
** Node set for fixed constraint
** written by write_fixed_node_sets function
*NSET,NSET=FemConstraintFixed
1,
2,
3,
4,
9,
10,
11,
12,
13,
14,
15,
16,
17,
18,
19,
20,
45,
46,
47,
48,
** ... 21 like lines cut

***********************************************************
** Node sets for loads
** written by write_load_node_sets function
*NSET,NSET=FemConstraintForce

***********************************************************
** Materials
** written by write_materials function
** Young's modulus unit is MPa = N/mm2
*MATERIAL, NAME=TestMaterial
*ELASTIC 
20000 , 
0.360
*DENSITY 
1.000e-09, 
*SOLID SECTION, ELSET=MaterialSolidElements, MATERIAL=TestMaterial

***********************************************************
** One step is needed to calculate the mechanical analysis of FreeCAD
** loads are applied quasi-static, means without involving the time dimension
** written by write_step_begin function
*STEP
*STATIC

***********************************************************
** Constaints
** written by write_constraints_fixed function
*BOUNDARY
FemConstraintFixed,1
FemConstraintFixed,2
FemConstraintFixed,3


***********************************************************
** Node loads
** written by write_constraints_force function
** FemConstraintForce
*CLOAD
** node loads on element face: Box.Face3
1,1,-0.0000000000000E+00
2,1,-0.0000000000000E+00
5,1,-0.0000000000000E+00
6,1,-0.0000000000000E+00
9,1,-0.0000000000000E+00
10,1,-2.0833333333333E-01
11,1,-2.0833333333333E-01
21,1,-0.0000000000000E+00
22,1,-2.0833333333333E-01
23,1,-2.0833333333333E-01
33,1,-0.0000000000000E+00
34,1,-2.0833333333333E-01
35,1,-2.0833333333333E-01
36,1,-0.0000000000000E+00
37,1,-2.0833333333333E-01
38,1,-2.0833333333333E-01
95,1,-0.0000000000000E+00
96,1,-0.0000000000000E+00
97,1,-0.0000000000000E+00
98,1,-0.0000000000000E+00
** ... 21 like lines cut



***********************************************************
** Element + CalculiX face + load in [MPa]
** written by write_face_load function
*DLOAD
** Load on face Face4
3,P1,-10.0
6,P4,-10.0
15,P1,-10.0
18,P1,-10.0
19,P1,-10.0
28,P2,-10.0
32,P3,-10.0
34,P2,-10.0
40,P4,-10.0
45,P1,-10.0
46,P2,-10.0
49,P2,-10.0
50,P1,-10.0
71,P2,-10.0
98,P2,-10.0
105,P3,-10.0

***********************************************************
** Outputs --> frd file
** written by write_outputs_types function
*NODE FILE
U
*EL FILE
S, E
** outputs --> dat file
*NODE PRINT , NSET=Nall 
U 
*EL PRINT , ELSET=Eall 
S 

***********************************************************
** written by write_step_end function
*END STEP 

***********************************************************
** CalculiX Input file
** written by write_footer function
**   written by    --> FreeCAD 0.16.5485 (Git)
**   written on    --> Mon Sep 14 06:41:34 2015
**   file name     --> 
**   analysis name --> MechanicalAnalysis
**
**
**
**   Units
**
**   Geometry (mesh data)        --> mm
**   Materials (Young's modulus) --> N/mm2 = MPa
**   Loads (nodal loads)         --> N
**
