*Node, NSET=Nall
1, 0, 0, 0
2, 0, 0, 10
3, 0, 10, 0
4, 0, 10, 10
5, 10, 0, 0
6, 10, 0, 10
7, 10, 10, 0
8, 10, 10, 10
9, 0, 0, 5
10, 0, 0, 2.5
11, 0, 0, 7.5
12, 0, 5, 0
13, 0, 2.5, 0
14, 0, 7.5, 0
15, 0, 10, 5
16, 0, 10, 2.5
17, 0, 10, 7.5
18, 0, 5, 10
19, 0, 2.5, 10
20, 0, 7.5, 10
** ... 260 like lines cut
*Element, TYPE=C3D10, ELSET=Eall
633, 95, 98, 47, 196, 103, 197, 198, 200, 199, 201, 
634, 147, 121, 145, 196, 203, 202, 161, 205, 204, 206, 
635, 73, 70, 27, 121, 84, 80, 83, 208, 207, 136, 
636, 72, 170, 30, 171, 209, 187, 75, 210, 181, 194, 
637, 9, 98, 47, 95, 101, 197, 54, 102, 103, 198, 
638, 172, 70, 30, 71, 211, 78, 186, 212, 93, 91, 
639, 170, 99, 36, 174, 213, 119, 184, 191, 214, 190, 
640, 12, 47, 149, 145, 57, 215, 150, 152, 216, 155, 
641, 70, 27, 123, 72, 80, 143, 217, 79, 77, 218, 
642, 39, 147, 121, 145, 160, 203, 132, 159, 161, 202, 
643, 70, 120, 121, 196, 219, 134, 207, 221, 220, 204, 
644, 70, 172, 170, 196, 211, 183, 222, 221, 223, 224, 
645, 95, 99, 170, 195, 104, 213, 225, 227, 226, 228, 
646, 145, 45, 47, 196, 229, 56, 216, 206, 230, 201, 
647, 70, 123, 120, 195, 217, 126, 219, 232, 231, 233, 
648, 47, 45, 95, 196, 56, 234, 198, 201, 230, 200, 
649, 121, 120, 145, 196, 134, 235, 202, 204, 220, 206, 
650, 145, 39, 120, 121, 159, 133, 235, 202, 132, 134, 
651, 70, 120, 27, 121, 219, 137, 80, 207, 134, 136, 
652, 9, 47, 45, 95, 54, 56, 52, 102, 198, 234, 
** ... 109 like lines cut



***********************************************************
** Element sets for materials and FEM element type (solid, shell, beam)
** written by write_element_sets_material_and_femelement_type function
*ELSET,ELSET=MechanicalMaterialSolid
Eall

***********************************************************
** Node set for fixed constraint
** written by write_node_sets_constraints_fixed function
*NSET,NSET=FemConstraintFixed
1,
2,
3,
4,
9,
10,
11,
12,
13,
14,
15,
16,
17,
18,
19,
20,
45,
46,
47,
48,
** ... 21 like lines cut

***********************************************************
** Node sets for prescribed displacement constraint
** written by write_node_sets_constraints_displacement function

***********************************************************
** Node sets for loads
** written by write_node_sets_constraints_force function
** no point load on vertices --> no set for node loads

***********************************************************
** Materials
** written by write_materials function
** Young's modulus unit is MPa = N/mm2
**FreeCAD material name: Steel-Generic
*MATERIAL, NAME=MechanicalMaterial
*ELASTIC 
200000 ,  0.300
*DENSITY 
7.900e-09, 

***********************************************************
** Sections
** written by write_femelementsets function
*SOLID SECTION, ELSET=MechanicalMaterialSolid, MATERIAL=MechanicalMaterial

***********************************************************
** One step is needed to calculate the mechanical analysis of FreeCAD
** loads are applied quasi-static, means without involving the time dimension
** written by write_step_begin function
*STEP
*STATIC

***********************************************************
** Constaints
** written by write_constraints_fixed function
*BOUNDARY
FemConstraintFixed,1
FemConstraintFixed,2
FemConstraintFixed,3


***********************************************************
** Displacement constraint applied
** written by write_constraints_displacement function


***********************************************************
** Node loads
** written by write_constraints_force function
*CLOAD
** FemConstraintForce
** node loads on element Face: Box:Face6
2,3,-0.0000000000000E+00
4,3,-0.0000000000000E+00
6,3,-0.0000000000000E+00
8,3,-0.0000000000000E+00
18,3,-0.0000000000000E+00
19,3,-8.3333333333333E+02
20,3,-8.3333333333333E+02
30,3,-0.0000000000000E+00
31,3,-8.3333333333333E+02
32,3,-8.3333333333333E+02
36,3,-0.0000000000000E+00
37,3,-8.3333333333333E+02
38,3,-8.3333333333333E+02
42,3,-0.0000000000000E+00
43,3,-8.3333333333333E+02
44,3,-8.3333333333333E+02
170,3,-0.0000000000000E+00
171,3,-0.0000000000000E+00
172,3,-0.0000000000000E+00
173,3,-0.0000000000000E+00
** ... 21 like lines cut



***********************************************************
** Element + CalculiX face + load in [MPa]
** written by write_constraints_pressure function
*DLOAD
** Load on face Face2
635,P1,1000.0
638,P3,1000.0
641,P2,1000.0
668,P1,1000.0
670,P1,1000.0
688,P1,1000.0
693,P3,1000.0
699,P2,1000.0
700,P3,1000.0
707,P2,1000.0
708,P4,1000.0
710,P4,1000.0
711,P2,1000.0
722,P3,1000.0
737,P3,1000.0
757,P3,1000.0

***********************************************************
** Outputs --> frd file
** written by write_outputs_types function
*NODE FILE
U
*EL FILE
S, E
** outputs --> dat file
*NODE PRINT , NSET=Nall 
U 
*EL PRINT , ELSET=Eall 
S 

***********************************************************
** written by write_step_end function
*END STEP 

***********************************************************
** CalculiX Input file
** written by write_footer function
**   written by    --> FreeCAD 0.16.5838 +1 (Git)
**   written on    --> Mon Oct 26 18:28:42 2015
**   file name     --> 
**   analysis name --> MechanicalAnalysis
**
**
**
**   Units
**
**   Geometry (mesh data)        --> mm
**   Materials (Young's modulus) --> N/mm2 = MPa
**   Loads (nodal loads)         --> N
**
